Q87KB0 1 GRIIRKNGPVVAIVEQKDASEEQKQIKEINTGV 152
Q87TK7 1 EEKVDVRQKYAAGEVGKDALLDMECRAYHSAGT 204
Q87N23 1 RFAGLVKDFDCTEYMSKKDARKMDLFIQYGIAA 64
Q87LL3 0 NIISALIILFIGNIIVKAVAGSVSKVLEKKNMD 51
Q87RD1 1 PVEESSPVYLRDNVTWKKLPGRE---------- 226
Q87KQ3 0 EEQTEFDVILESAGGNKVAVIKAVRGATGLGLK 66
Q87LT1 1 -----------MSNIIKALEEEQMKSGLPKFAP 5
Q87LT1 1 ---MSNIIKALEEEQMKSGLPKFAPGDTVVVQV 13
Q87LT1 1 NIIKALEEEQMKSGLPKFAPGDTVVVQVKVKEG 18
Q87MX2 0 GPMMGFTLPHSQVPITKTANCILAPTRHEISAH 355
Q87LS7 1 ---MFENLTDRLSKTLKNISGKGRLTEDNIKET 13
Q87S21 1 LQARIKATDFTRDIINKTAEEVAPRQLATMAAE 115
Q87LQ4 1 SSLAYLTGKPVASAKIKAQPEHFQVREDLGFAF 21
Q87LQ4 1 AGSFATSIVRELVNEVKVEREY----------- 341
Q87S63 0 EKEREYAELEEVWNTEKAALSGTQHIKSELEQA 465
Q87QR9 0 SSQGGKFIEEVQKDKYKPGKHIGSWYVEPPSSE 365
Q87H79 1 ----MTQAILQLSEIEKAFPGVKALDKASLNVY 12
Q87LK2 1 DGSGAEFPAVISEVSKKNVLVDVTERVESNIES 59
Q87RT6 1 RYVGGGLNQAVESARVKLHNPDVTVKVEVSGDK 141
Q87HL4 1 PANRQGRMAADNMLGRKETYQGTQGTAICKIFD 338
Q87GL7 0 PINVFESGNILFYLAEKFGHFLPTEGAKRAEVM 126
Q87PA4 1 PEAIFDAFRTSKGTYKKTIGGLYKQGKIVIEKD 255
Q87RX3 0 EKEKIETAISELEEARKGEDKEAIDAKVQALMT 575
Q87QH6 1 EETINKLTGEIGKLENKIAETRAKQQALAIRNQ 127
Q87RC6 0 SRAVNRHGTKIAAIVKKAKQTPPEEYPAKIDRL 296
Q87FR0 0 FASITYDHKRYQWQDAKWQNRAVTQKRDEALSF 259
Q87QX7 0 ASTGVFLGCSGYALPPKERCKTTINLGDEEGII 632
Q87T34 1 KAGSDNFRASSIQGIMKRIKAKGVEVVVYEPVL 322
Q87PJ7 0 TAASQARERLLSDNAKKKAQIAELQTFVARFSA 257
Q87RU9 0 DGAQFGLGAEVAVSTQKLHARGPMGLEELTSYK 388
Q87KY4 1 LGPRDKVSQAFWHEQQKGNTIKHPLGDVVHLDL 300
Q87LE2 0 DNGGECSSTAIRALIKKLVAAENTAKPLSDSKI 436
Q87HR8 1 GLDLDDAPLKLLAAELKKVCGCGGSVKDGTIEI 62
Q87L48 1 DRKGVIHTRRDDLNEYKQLFANNTDKRTLEDVI 245
Q87L48 1 DAIRALAKEPVPESVLKAAGVEKLEFGSDYIIP 372
Q87S36 1 CPQLPEDKPRYLMGVGKPEDLVEGVRRGIDMFD 249
Q87RF0 1 TFNVGSFAVGQETMKLKDIYAALKKTYCGSIGA 154
Q87QL2 1 AIQKKGRLSKESQALLKQCGVKFNVMGERLVVH 24
Q87N14 0 RVKDQLADEQVEETAVKAIEPVESQVDQAVDTA 736
Q87PJ7 1 VKASSRQNPFIRFEQSKELFRNALIVENLSQGF 312
Q87I09 1 KQITPLPESKLDGASIKHRLAVWIHSALPDNDP 67
Q87SU3 0 NVGIGKDHTLFALTEGKVKFEVKGPKNRKFVSI 65
Q87TP8 1 RGCGITVDQADRMVTDKGEWLLFKQEVKGQPTS 110
Q87TP8 1 YTMKGDQKYFPVYDENKKLLPNFIFVSNIESKE 293
Q87SJ9 0 EDGCSTSEIINAIKGGKG--------------- 474
Q87L21 0 YLTGIGKKGFIADLMPKLPIYINLLSPEAQAVI 210
Q87RX5 1 DAKIAQLEAALLSSETKVKDQQDAVLRAKAEVE 57
Q87KQ4 0 KITQGDDLAPGVLKIVKVYLAVKRRIQPGDKMA 1050
Q87FP3 0 VELTDVGAAIITSADIKAGLHKMISETGYGIPV 52
Q87M18 0 RWVECGDAKKLDEFQRKNQANLALDGGDNLTYI 487
Q87M72 1 DEEKRNRRYKGWKRAVKCAQTWSELHDEDD--- 491
Q87MR4 1 PTRNEEGCVRYQLFQDKDNASHFVFQEQFKDQE 43
Q87R04 0 DEDGLAIDFEIEGDYPKFGNNDPRVDDIACELV 563
Q87S19 0 YHFGVDDFDNMTNINKKLREKLQHKCEIKAPTV 54
Q87KT6 0 ISMPELGSLLDHSGPHKDAEEYIARTFNADSSY 197
Q87SY2 0 KSDKKLDIRFETSPSEKASTFIQDKGQYPMKRV 618
Q87QY7 1 KEQDVLLSLHMKATMMKVSDPVIFGHAVKVYYK 261
Q87SF3 0 HTGDSITVAPAQTLTDKEYQLMRNASLAVLREI 258
Q87QY7 1 AVFWLDENRAHDAELIKKVNAYLPDHDTTGLEI 501
Q87LZ7 0 VMVEGEDAELVQSSALKIADAVKASC------- 436
Q87QY7 1 QALADTLDKATGEFLDKNKSPSRKVGELDNRGS 644
Q87SY2 0 SQQIGLSRAATLVKQAKSEVENSVLVDNGDLIQ 66
Q87NH0 1 KLDVQAGDTPTQKHALKAILKHMNDWATDKLSS 65
Q87RF0 0 LYELYLSDPDLVSEEWKRVFEGLPKPSEEVAEQ 41
Q87LR7 1 IAQVPGGMLTNMEGQLKEQGAADRIDEVLEEIP 309
Q87I05 0 YTKALAADINLRVLPGKLGISLDETTTVADVEA 416
Q87PR1 1 VLLLLIAVSRKSKVIEKVVEKPVEKIVEVEKPV 39
Q87RP0 0 VGLPNVGKSTLFNALTKAGIEAANFPFCTIEPN 43
Q87LS9 0 SMKGKETMSNEKIVVGKFGATYGIRGWLKVFSY 17
Q87LR3 1 MGTAGEELKRQQAVVEKVLRIEEENFGRTLERG 356
Q87LR3 1 LLHAALRQVLGEHVTQKGSLVKAENLRFDFSHL 583
Q87HX7 0 TLPATGSESNMGAVITKAETQDKLPFMSPAVQP 149
Q87L72 1 MIMRTKAAITEQSIMLKQKEERAPRREERSEAK 103
Q87M78 0 RLAGRTLSVDCVDKFPKMVDYVVPTGVRIADTS 170
Q87T03 1 RIFGPVTRELRGDKFMKIVSLAPEVL------- 113
Q87RK0 1 DDQVEAEVARFFDARNKSAAQLETIKQKALETF 48
Q87RJ4 0 MGPKSAQNIVNALEKSKLTTLPRFLYSLGIREV 504
Q87MZ4 1 CATLAPLHNPAHIIGIKAAQKSFPALKNVAVFD 129
Q87QU5 0 TLAALWLRPLGLDYRSKIEEPKWRNTWDICISI 108
Q87JQ6 1 CENAYFIKQREEGYADKSILEIIREMYQYGDML 242
Q87FP3 1 RQSIEYYCRQINEAVTKYECRLLPPFFKQLTHY 109
Q87FP3 1 SAHQAQAHAAKVFNADKTYFVLNGTSASNKVVC 198
Q87N29 0 IMTATLGVMAGVMGVEKIDTGVLGGILVGGVAA 103
Q87LU2 0 TDDEIFALKRGGHESSKLYAAYKNAAETKGRPT 366
Q87SY2 0 LSGMLTLAGPAMADTIKLRIIETTDIHTNVMDY 26
Q87L45 1 RTLNNEIVLATCGSAFKNKGVQAVLDAVIEFLP 270
Q87L45 1 IVDRMKREFSVDCNVGKPQVAYRETIRGKAEVE 482
Q87TQ7 0 KTVAEYYKIKVADLLSKRRSRSVARPRQLAMAL 397
Q87T01 0 IEKITLNMGVGEAINDKKLLENAASDMATISGQ 46
Q87L45 1 SMEFNEYAEVPKNFADKIIAERGY--------- 691
Q87MJ3 1 LYTQLKVNQNRENVLAKLKALPELVKDLNNSQP 32
Q87MJ3 1 LDARDMTDFIDGTENPKGDARADVALVKDGPYA 149
Q87L18 0 LTKGFYLQAIENDNNDKTSEGLFIHTNAADTEL 249
Q87S90 1 ------------MSEYKDTLNLPETGFPMRGNL 4
Q87S90 1 AGQHVFKANDAVVETLKEKGALLHHHAYEHSYP 392
Q87S90 1 VLTHGFVVDGHGRKMSKSIGNVVAPKDVTNKLG 609
Q87T00 0 IKVREACMKGEIPGLRKASW------------- 97
Q87S90 1 NNEFWTEIQKVRGAVNKLLEAARAEKTIGGALQ 825
Q87IM1 0 ASGLDYPSVGPQHSYLKDIGRVNYGSINDDEAI 324
Q87TP7 1 --------------MQKYDIKTFQGMILALQDY 2
Q87L18 0 -----------MDTLIKPSILALTIASALSANA 5
Q87MX2 0 QPVEETASQEPTEDPKKAAVAAAIARAKARKAQ 840
Q87K62 1 LAKMRNIDAKLLFSDLKRAGYITRQGEKWILTE 25
Q87PB3 0 WTGNRVTCRDWFQLSLKEGLTVFRDQEFSSDLG 319
Q87T10 0 RHIGGGHKHHYRVIDFKRTKDGIPATVERLEYD 67
Q87ME7 1 KYAKHLSECKATVVMVKAEHKDQCAGNALVVAD 61
Q87LW3 1 GQLATRLWVAPPTKMDKDQLTEEGYYGIFGRAG 744
Q87LW3 1 TPGCSLCMGNQARVADKSTVMSTSTRNFPNRLG 781
Q87LW3 1 SAELAAVGAILGKIPTKEEYLEYAKQIDATATD 822
Q87LW3 1 TDTYRYLNFHKMEQYTKKADEVIFQEPA----- 853
Q87PS1 0 ALMERNKQFKKPDFLPKGWCVIPIDENDITITH 53
Q877T5 1 FAIREGGRTVGAGVVAKIFE------------- 390
O50286 1 MADHGVVFGEPQTDINKIRIWKEKVVNQLTGGL 84
O50286 1 VVNFDNAIVAAGSRPIKLPFIPHEDPRIWDSTD 150
O50286 1 KVEVVEMFDQVIPAADKDIVKVYTKRIKDKFKL 215
Q87KH7 0 IVHPMGEIDAMEFLIDKLAMTKTNDEFFDAMRR 401
O50286 1 DKDIVKVYTKRIKDKFKLMLETKVTAVEAKEDG 230
Q87LR3 0 AQKAKTLEKELQKLKDKMAAAESANIMGKAVEV 736
Q87MD7 0 ICTSINHIVCHGIPAEKDEIGSNGQMKPAVLKD 83
O50286 1 AIASDCSDGMTKLIFDKETHRVIGGAIVGTNGG 402
Q87SJ9 0 YGPTGRISPEAPVPVVKVENNEERPGGAANVAM 41
Q87GU2 0 RFCNTEFGDLKLSEQEKGIICCMLLRGAQTPGE 99
Q87S63 1 RGPLGQLLKEVGLTEQKVSQAIEKIRGGQKVND 134
Q87J37 0 KWSKLDSVEAIQIEVKKYLQDTLNKTTDGVTFS 78
Q87G49 1 LQFKDLGLDNRLLKNLKHYDFKKPTDIQKQAIP 20
Q87N45 0 LSREKAKRHEAWIVLEKAYEEAETVVGIINGKV 99
Q87Q02 0 VDDMVKISEFVKHFLVK---------------- 367
Q87LD0 0 SWWQFDSRVNWLLEKVKEKRGEKILVIASRAST 500
Q87KM1 1 VGVNGVGKTTTIGKLAKQFQSQGKKVMLAAGDT 222
Q87N22 1 LVNNAGITRDNLLMRMKDDEWNDIINTNLTPIY 98
Q9L7P5 1 NEGLKAVAAGMNPMDLKRGIDKAVAAAVEQLKE 116
Q87LL1 1 ---MSVIKMTDLDLAGKRVFIRADLNVPVKDGK 13
Q87FN4 0 MVPDPRYAEKDAVTELKTTIRELHKHGIEVILD 224
Q87QX7 1 AKAKTINKYLGKDFIVKSSVGHVRDLPTAGQST 27
Q87LR3 0 AMFVEGNEVDSLSAGDKAIIVLGETPFYAESGG 486
Q87KF6 0 DMLTRPELAWLNDYHQKVWEQISPLVDGEVKEW 568
Q87QB9 1 HPVGCEANVKEQIAYTKAQGPIKNAPKRVLVVG 31
Q87QB9 1 GASTIGVFFEKEGTEKKPGTAGFYNAAAFEKLA 81
Q87KT0 0 HGGVLGRRGQDDDVMAKHGINPIDMVVVNLYPF 91
Q87MA4 1 VNKAKEIHTSTLKLFEKYLGETKTSLAWKKHRL 157
Q87FC8 1 AGEGTVQFELVRIPADKVASETRVFADNAREQS 58
Q87LP7 1 LVKIGATLKDAEHYALKRFNVNTPDELYVGVGS 527
Q87LG6 1 MLGDTGVAVNPEDPRYKDLIGKEIILPIVDRRI 242
Q87N14 0 PAQTAPAPVSKPAPVAKKKEVEQEAKPGLFSRL 551
Q87Q26 1 KLGVKAIRVVEMSQGQKISRFMAWSFMDKQQRK 352
Q87RR7 0 MLVAMVVPAALTLILYKRAQAKGELEAANA--- 460
Q87IM1 0 TQLYAIGSVVGPHPFPKMVRDFQSIIGNEARVQ 205
Q87KA9 0 TVLADTAIRGEDLDAAKAEEAKRRAEEKIQNQH 94
Q87S69 1 RRKLSIEVAKSKVQTSKPVRDAVREQQLLVKLI 44
Q87LK6 0 DTYGGAARHGGGAFSGKDPSKVDRSAAYAARYV 265
Q87HP1 0 IFGGFTVTKRMLEMFRKDK-------------- 515
Q87RF5 0 MHSDPLNRIGRPRQLYKGETQREFSPLHERE-- 414
Q8GRF5 1 RVPLPPLTEERRKDLVKIVRGEAEGGRVAVRNI 114
Q87TF4 0 LDLIYGLPKQTKASFAKTLEQVLEMQPGRLSVF 229
Q87R79 0 -------------MTDKSKESGSGKLLYCSFCG 3
Q87MR4 0 ---MIHLTATFHAQPGKEQQLKEVLTQALEPTR 13
Q87SI1 0 GGYFLEPPNFEAANPLKTPEHIAPVWYFTPFYA 298
Q87MC3 0 AKTIAELVEQHGLPIEKTVKTLFVKASDEIDAP 275
Q87HJ2 1 YWDFNFVGQEIFKRAVKGMGLAAKTVLKASQLT 224
Q87HJ1 1 LNRVPNERVAESATCGKCKSPLLDGVPIEGTLD 29
Q87MY2 1 LEAIEAENKVRIESVCKLAGKTGVEMEALTAAS 103
Q87TE1 0 GIIDAILDGSIEDAPTKHIPIFNLEVPTSLPGV 473
Q87KQ4 1 MVKEQQELAKFREFLQKVYDLGDTRQKVDIASL 1146
Q87LR1 1 GDEVVGNETRIKVVKNKIAAPFKEANTQIMYGQ 248
Q87SZ2 1 SELTEEQIDQLRDGVAKYTVEGDLRREVSMNIK 61
Q87SZ2 1 KYTVEGDLRREVSMNIKRLMDLGCYRGLRHRRS 77
Q87L54 1 --------MNEKYAALKSNVRMLGHLLGNTIRD 8
Q87G93 0 CDKQVDMNRFAGKRVVKTNVKAPIRDAQGLINE 239
Q87RH0 0 VLLSGGLDSSITSAVAKRYAAMRIEDDEKSEAW 247
Q87QM1 1 DALRIKEIERTTNHDVKAVEYFLKEKVADVPEL 93
Q87LQ0 0 RMGAEVFHNLAKVLKSKGYNTAVGDEGGFAPNL 199
Q87H06 0 IVKVGIGPGSVCTTRVKTGVGYPQLSAIIECGD 190
Q87PJ7 0 ELQTFVARFSANASKAKQATSRAKQIDKIKLDE 279
Q87R38 1 NGATLAIIPGDPARVQKIAEQMENPVFLASHRE 31
P40607 1 PYHVAMDQAREIARGKKAIGTTGRGIGPAYEDK 124
Q79YZ5 0 VMEEHQGGIMENIGLRKGELKDMAPDGKGRVRM 426
Q87MD8 1 PFIFGARNRVHIINLEKTVPMFNEALAELAKVG 44
Q87RE7 1 DECKIGIMPGHIHKKGKVGIVSRSGTLTYEAVK 146
Q87RE7 1 PPGKRMGHAGAIISGGKGTAEDKFAALEAAGVK 255
Q87GT5 0 TGAAKAVAKALPELAGKLTGNAIRVPTPNVSMA 361
Q87MD5 1 SLRQEAHKDVLKIYFHKQKGEFFAKSVKFKYPR 35
Q87FG9 0 LELGSQNQTTLVGMQVKGPLFDFSPQIDQYLKA 149
Q87LU2 1 SMGLGPISAIYQARFLKYLEGRGMKDTSEQRVY 207
Q87LU2 1 NVVKVIWGNNWDSLLAKDTTGKLLQLMNETIDG 302
Q87PC0 0 AEIKSEANVQARRGVKKVDAKFFGFDNDPKVLK 252
Q87LU2 1 QLMNETIDGDYQTFKAKDGAYVREHFFGKYPET 326
Q87L54 0 RDAHGEEIFEKVETIRKLSKSAQAGNQADRESL 39
Q87QV2 0 IKLTGEVRVRPESQVNKDMATGEVEILAKGLEI 84
Q87N07 0 QLFDPEKEMFLPDRFVKGTCPKCKSEDQYGDNC 147
Q87L44 0 KSELLAKFVNILMVDGKKSTAEKIVYTALDSMA 34
Q87MA8 1 AAVGLRDKQKANAVLDKQSKIVEVAGIEANGKK 44
Q87RC6 1 DRLMDYPGYKQVFKNMKDVVKSAAQKSGLATEF 326
O50286 0 CLNVGCIPSKALLHVSKVIEEAKAMADHGVVFG 60
Q87MZ3 0 RSADLVSIGPMLQGMRKPVNDLSRGALVDDIVY 683
Q87RT2 1 SLPGNNSQFFMGIPRLKFPADAPSRSTLKLEEA 176
Q87KN0 0 LRYMADSHGTDSAIAHKLARVARIHFSRQKLAA 188
Q87KX9 1 KGQAFNRVKIRKLLSGKVLEKTFKSGDTCEVAD 49
Q87RF8 1 ENHILAIAQAVAEVRAKQGTTGPLFVGKDTHAL 73
Q87RF8 1 PGVSHAILTYNLKHDEKADGIVITPSHNPPQDG 136
Q87T02 1 VIVLAGKDKGKKGKVTKVLATGKVIVEGINLVK 26
Q87S87 0 VRELAGDVDVMVVVGSKNSSNSTRLKELAEKLG 224
Q87M18 1 PKTRQAVERDVEATEDKFSGFVFKIQANMDPKH 294
Q87RU3 0 LRLAMYEMTRREDVPYKVVINEAIELAKVFAAE 118
Q87T08 0 LEILTFSNKKAAALVKKVLESAIANAEHNEGAD 48
Q87LL2 1 NCVGTDSVNAVLEAAAKVKAPVIVQFSNGGAAF 51
Q87NI5 0 ------------MNAVKVYIKQRFNKLSSHLSE 4
Q87KA4 1 KYVWPPLMQAIEERQKKIADGLQAAERAAKDLD 38
Q87KA4 1 EAKRTATEIIEQANKRKSQIIDEAREEAQAERQ 82
Q87LU2 0 HESSKLYAAYKNAAETKGRPTVILAKTVKGYGM 378
O51859 1 ------MSENYDSSSIKVLKGLDAVRKRPGMYI 10
Q87T06 0 GVPEELAREAFRLAARKLPFKTTFVTKQVM--- 122
Q87PF8 1 GMFLMAYNTYKTVSAPKESLKAIPHPA------ 466
Q87TP8 0 GVASSRTIRGHRFMGEKEFTIDSAEQYPAILEE 193
Q87QB3 0 AHKQLYIPMGAGMVLFKDPDAMKSIEHHAQYIL 351
Q87GW6 0 EVWPEELLAKAPQYRGKTMYDMLFKNGQVDKFP 590
Q87NJ7 0 MDSNVRIAVTGLSRAGKTAFITSLVNQLLHTAT 31
Q87ND4 0 NGLTHRTFEAMQYYLLKASVALAKEQGKCPSFH 552
Q87KX0 1 LGSARFPEFKQVEVREKAIENLKKHGIDALVVI 84
Q87TP1 1 -----MFNALVLNQEDKRTIANIEQIDETQLPE 11
Q87LI2 1 KKISFTGSTRVGKILMKQASETVKAVSMELGGN 237
Q87LP2 1 GLDVVGQLDKVKAATQKLTEAGIKVSLFIDADR 121
Q87NJ7 0 NLPLLTAARDKRLIGAKREPQTNMMVPRFAYDE 66
Q87MV2 1 -----------MPITSKYTDEQVEKILAEVALV 5
Q87TK7 0 SCGNLAHAVAASCSSEKKNILDFTHANVALISA 57
Q87SZ1 1 HKAILVNGKVVNVPSFKVAANDVVSIREKAKQQ 135
Q87LW3 0 FLSKPKLEEKITLTVFKVTGETNTDDLSPAPDA 171
Q87MD8 0 LKAGVHFGHQTRYWNPKMKPFIFGARNRVHIIN 25
Q87PA4 0 ASGRIVGTTKFNKWLDKTPANYEVNEEVDLIIA 138
Q87T06 1 FRLAARKLPFKTTFVTKQVM------------- 132
Q87SV0 0 ENFDTFKRLHPAFANLKKEDMVKAGISIPLHPG 293
Q87P92 1 DFYEEFNTSPAVRMLVKAMEKAHGPEKGNSKYL 67
Q87LR3 0 GEIRTEAGVFRVEDTQKLGNAIAHHGVMAEGVL 524
Q87Q96 1 ELAKHIADKTNWRTLLKGDGEPIELQDRFAELL 173
Q87T07 1 NLDGDFKVRQFLTSELKKASLSRIVIERPAKSI 47
Q87MG8 0 VIATQPLTGNETWHRMKPGEYGLFHLGELIQNN 240
Q87HL4 0 VDVRVMNEVVSINRQDKTVTIKNLLDESEYVES 88
Q87PB0 1 LEEEHVEHAKATLAESKAKVQARRKEQAQKARE 104
Q87S73 0 GPEAAEPHRIKYKRIAK---------------- 554
Q87RJ4 1 KAGFEKLNELARQKGEKVFVNPRNAAAGSLRQL 194
Q87LL8 0 GSTQEAQENIGVEVAGKLAKYSDNGSTLSSVNF 310
Q87SZ4 1 INKAVTVKGLRVTKGAKAAIEAAGGKIEE---- 131
Q87PG6 1 ISRLLGRFQKSEILSVKGKYITILDHDALMELA 226
Q79YZ5 1 KEGKFVTSRNILERLEKELVHNVALRVEQTDDP 340
Q87HX7 0 DAMVQDGYAETLLKTLKMLGEQFAERDDDKWRA 220
Q87MM3 1 QHGLEKGFAQGQELEAKRFGELVMSSESKALRS 272
Q87KA4 0 LLGQAISFALFVWFCMKYVWPPLMQAIEERQKK 22
Q87SQ8 0 VAGTVLVEKLVGAAANKGYSLEQCEALARRVNN 163
Q87IJ8 0 VLAPTRELAIQVAAEMKNLGKNIKGLKVLEIYG 94
Q87L75 1 TRDIAEAITAAGVEVAKSEVRLPEGALRTTGEF 111
Q87JD0 1 NVEAVLVRNIGERALEKLLHSGKQVFRLSTRSS 75
Q87QR9 0 GLVIKCDDQETFEYLKKCGMQVIPERY------ 461
Q87RF1 1 MKLNFSLYRYNPDVDTKPYMKEYTLEVDEGSDM 16
Q87LP7 0 RRMLLAMVDDFRCVVIKLAERICNLIEVKKAPD 150
Q87N07 0 EKEMFLPDRFVKGTCPKCKSEDQYGDNCDNCGE 152
Q87MP2 1 -----------MSWLEKILEKSNLVSSRKASIP 5
Q87HM2 1 GLGTSWASRLIQQSILKNRIAGLGKNRKTAVFP 311
Q87ND4 1 FHTGCIPFYKYFQTAVKCCSQGGVRGGAATVFY 289
Q87KH7 0 GERYFALLKVNTVNDDKPDNARNKILFENLTPL 122
Q87ND4 1 AISANTNYDPSRYETGKVPMKKLLQDLLTAYKF 707
Q87NF6 1 KLLEENLVQKEQLAGNKVIYKAV---------- 122
Q87GU2 1 AVLEHLASEEKGPLVVKLPREAGKRESRYMHLF 150
Q87NH5 1 RVSTLDMENLPRTDAGKVDYNEDFFGKETFLTV 193
Q87I09 0 -----------MSKSSKLHNEDKLVKKALEIGG 5
Q87SI4 1 RSLDEYFGRPTSRMVVKQPLELVELTEKLDLYV 48
Q87H82 1 TPMCGIEKAARVAKDAKTNVILNPAPARELSDE 156
Q87KQ4 0 --------MVYSYTEKKRIRKDFGTRPQVLDIP 8
Q87QA3 1 YLSGLVFKWLKAQGGVKSIETVNREKAKLLYDY 264
Q87T94 1 LEPVLRERFRKRLARGKVECSLRFEANPAAKAE 60
Q87Q96 0 PTRWIDQGATQGLPIFKVKTRHISGLIEVELAK 144
Q87T94 1 ELDRLDSHVKETTNILKKGGAVGRRLDFMMQEF 233
Q87L18 0 HGDASDAIKAVADQTDKNVANFNGDDPLALLKD 104
Q87SZ3 1 FVPGIRPGEQTAKYIDKVMTRLTLAGALYITFI 368
Q87M02 0 VDLRYYSIIYQLIDEVKQAMGGMLAPEFKQEII 793
Q87LL2 0 VGTDSVNAVLEAAAKVKAPVIVQFSNGGAAFFA 53
Q87M27 1 AIASGGFTYFSDYIKEKVGLDFARSNQLEIIDG 211
Q87S16 1 ASDVFLAVDSYRLLAKKIDQPLHLGITEAGGAR 197
Q87K44 0 PQGLVKAAIQGHTGAIKTYSLGQGPVWVLTHGW 71
Q87K87 0 --------MGRSFEVRKASMAKTAGAKIKVYSK 8
Q87KQ5 1 LPKKMALELFKPFIYSKLETRGLATTIKAAKKM 383
Q87LD0 0 PFDTQQYVLCSLDFLRKSRKRFEQALEGEWDLL 260
Q87LY8 0 EADADAAEQEFVNRFAKNQIPDEMPEFDFDAGT 317
Q87KQ5 1 ALSELALGRVVAEDVLKPGTEDVLIPRNTLIDE 849
Q87KQ5 1 GSVKLHNAKFVTNKDGKLVITSRASELTIIDEF 971
Q87PS1 0 EDGEKALRKYKLEWVQKHNQIAKKYNQIKKKQY 115
Q87KQ5 1 QYIANEVQEVYRLQGVKINDKHIETIVRQMLRK 1245
Q87GT5 0 VLFGKTLINATTIDILKTHRVARRYTGSPLSLE 51
Q87QL2 0 -----MQTQRLRIAIQKKGRLSKESQALLKQCG 11
Q87TC0 0 AGDIVKVKVMEVDVQRKRIGLSMRLNDEPGQDN 712
Q87QD9 1 PEFYEGIVLVIDGKEVKVKPQDVQRHAFKPKVE 68
Q87K98 0 PRYCPSIEDKVMRFADKNSHQIFIEPEGLTTHE 289
Q87R67 0 FYMTDEGQEGRNAFNEKRRPDFDKFPRNP---- 279
Q87RG4 0 VWIEREDFREEANKKYKRLVLGKEVRLRGAYVI 402
Q87SF7 1 IEKSELLSNALKKAKIKHNVLNAKFHEKEAEIV 475
Q87M18 0 SGTYTQGMKMNHVRLGKQVSISDAVTFMAGDRS 337
Q87HU8 1 VTVIKDLPVKGTNQVIKQGTVIRGISLGDDPKL 147
Q87RF0 0 NGAQVVIDQFISSGEQKWGRLCGLTMLLPHGYE 709
Q87QP1 1 ------------MLDSKLLRTELDETAAKLARR 4
Q87QP1 1 RTELDETAAKLARRGFKLDVETIRKLEEQRKSI 23
Q87KR0 0 ATYMVEGGSSKAFTKIKKMMYAEPQTLHLLLDK 167
Q87LZ4 1 YANEARKKGYRSRAYFKIDEIQTKDKLLKPGMT 37
Q87SL6 1 KDKLRLGTIRLALAAIKQREVDEQITLNDDDIL 33
Q87MW8 0 RKPRCGSCIIEDLCEYKEKVYPDS--------- 205
Q87RN8 0 ------------MPDMKLFAGNATPELAQRIAD 4
Q87Q76 0 CAAEQGLDLPMLNEELKKLK------------- 561
Q87M33 0 LNFLLKIPFVNSLIKKKLAEGLGLDQARVLGCG 311
Q87M70 1 QAPLLSVFGGKLTTYRKLGEAAMKKLEPYLPQM 371
Q87LS9 0 VVTDMLETGSNDVLVVKANLKDAFGQKERLIPF 141
Q87TE8 1 IQENEVKFVDLRFTDTKGKEQHISIPAHQIDAD 25
Q87LU3 1 NKKGIYELSEELMAVSKKARAGKLTAADMQGGC 527
Q9ALY5 1 AWVRAKSPCEVAEISFKKFRQLIQVNPDILMRL 100
Q87KQ4 0 IVYIGAEVKGGDILVGKVTPKGETQLTPEEKLL 885
Q87MI2 1 GESATLTIEEHVKVVNKTVEFANGRIPVIAGTG 61
Q87MI2 1 GRTAVDLQPETVARLSKLDNIVALKDATGDLSR 152
Q87RU9 0 ------MDLTNMGKAAKGAAFELATASTAQKNQ 10
Q87R04 1 EGDESFLVSEGTEATNKLWAKVMEGIKQENSTH 50
Q87KU7 0 GSVGEPINPEAWEWYYKTIGNENSPIVDTWWQT 399
Q87R04 1 GAPFAPGANPMHGRDEKGAVASLTSVAKLPFAD 640
Q87R04 1 NVLNRETLEDAVKHPEKYPQLTIRVSGYAVRFN 722
Q87S73 1 VREVVEEAVADVADALKRLDAVYAAYAEPDADF 101
Q87L18 0 YGMEDPLLTLTDYSKEKYGRDIYTAGYTTINGG 729
Q87S73 1 NNFEIPARAYCSRFNFKGSDQQKVIGELSGGER 433
Q87S73 1 VNFYEGNYTEYMDWLKKTLGPEAAEPHRIKYKR 535
Q87M78 0 GDRCTIESGLYVTAGSKVRMLDSAGQEVEVVKA 287
Q87KW2 1 HKLMEAIEYLKGAFDLKATEFKDVLKMGRTQLQ 186
Q87KW2 1 FESISLLHNACVNLRDKCIDGITVNKEICENYV 398
Q87KW2 1 GHHEGDIVGKICAETGKSVREVVLERGLLTAEE 445
Q87SQ9 1 DALSTYFEARANMTSGKATMAGGLATRSAQALA 186
Q87SQ9 1 LAKLCYETLLEDGLKAKAAVENGVSTKAVENII 217
Q87SQ9 1 FCRSVGLPTNLFDMGVKELNHAKLREVAEASTA 314
Q87GW6 0 TQGDPEAPVNKGLNCIKGYFLSKIMYGQDRLTQ 84
Q87L13 0 IPTVNARVMSLQDATKKMSKSDDNRKNVITLLE 197
Q87MT1 0 GTPGCTPMKVPERDLSKFVEFQ----------- 176
Q87RR6 1 HDESWWKTATIYQIYPKSFCDSGSKGTGDIKGI 21
Q87RR6 1 ATIYQIYPKSFCDSGSKGTGDIKGIISKLDYLK 29
Q9LCJ0 1 IFGVKKWECTVISNDNKATFIKELKLQIPDGES 141
Q87QL9 0 IAMGHYVRRSFPENGEKPQMLRGLDSNKDQSYF 140
Q87QY7 0 SVTGNAKAQALADTLDKATGEFLDKNKSPSRKV 636
Q87QB4 1 DVSEPTVNRFCRRLDTKGFPDFKLHLAQSLANG 60
Q87M79 0 EEKMTFTSKAEADAYDKMLDMADELFTLLGKSE 29
Q87RV5 0 QGFDVRRDPTGNVFIKKPATPGMENKKGVVLQA 62
Q87NG8 1 VLATVKKAEAALIETEKTKSYLTIEGTAEYGLA 78
Q87SC0 0 IDVCRKLTPADVASLMKVSDKIADLNVGRFQEW 50
Q87RF0 0 KKHPTPRKLYADVLIDKNESDIETATQLVNEYR 496
Q87MZ3 1 NFGGTKNKNISGVIINKLNAPVDEAGRTRPDLS 172
Q87TJ9 0 DEKDLAGMPESALAAAKAAAEAKELDGYLITLD 198
Q87MZ3 1 ATVFVFPDLNTGNTTYKAVQRSADLVSIGPMLQ 663
Q87HZ3 1 IAAKSDEHLGILKQLTKVLGADGVEERLRDAKS 114
Q87RR6 0 NAEAAVADLNSVFYFYKRLIELRKQVPVITDGR 464
Q87T02 0 ATGKADRIGFRFEDGKKVRFFKSNGETVSN--- 91
Q87T00 1 KRAKLVAKFAEKRAALKAIISDVNASEEDRWNA 27
Q87SV0 0 GIVQSDWQYHGYNGTSKFAEQGPYKKLRAMFSL 99
Q87TG5 1 NYYGPFRDAVGSSSNLKGGNKKNYQMDPANIDE 223
Q87MD7 0 LKEGMCFTIEPMINAGKFGCTVDAQDDWTVYTG 238
Q87R36 0 TMPTIQDRSLNVQVYRKLGESEVRNELDVATVV 281
Q87RG4 1 VDELSPEQIREYRGTLKEPGKPSPYRDRSVEEN 137
Q87RG4 1 SPEQIREYRGTLKEPGKPSPYRDRSVEENLALF 141
Q87L90 0 GASSFLAQRLEEGGDVKVFVEHNNNFKLPEDDT 459
Q87TR0 0 ETIQNAWPFVNNEKGQKLQAEVNKALAEMRADG 215
Q87SV0 0 TGSVTGVYYPTGGAICKLVNKGRKDHNIRCSVE 47
Q87QJ9 1 DNGDVMFEVGKFDEYGKLSKQDLDQLQAGARVD 153
Q87L43 1 ATINQLVRKPRAKQVVKSNVPALEACPQKRGVC 17
Q87KR5 1 GTFKVNHRAARTGRNPKTGDEIQIAAANVPAFV 63
Q87KA0 1 MYDPRNRLSNEVSDQLKKHFGNKVYRTVIPRNV 200
Q87SY9 0 MASSLVRHEVIKTTLPKAKELRRVVEPLITLAK 39
Q87RP4 0 GTPAADYPCDIPEQVKKERLYELQQTINAQAMR 358
Q79YX4 1 -------MSQAFEVEVKKDTSNDEVLQWVTFQL 9
Q87KA6 1 ELLGRVVNTLGEPIDGKGPIEAKLTSPVEVIAP 127
Q87KA6 1 VNTLGEPIDGKGPIEAKLTSPVEVIAPGVIDRK 133
Q87KQ5 0 FISTHGARKGLADTALKTANSGYLTRRLVDVAQ 788
Q87GL7 0 GEHPFQLYSMGTPNGQKVTIMFEELLAAGVKEA 55
Q87FP3 0 GNSAFDCPGHQGGQFFKKHPAGKQFYDFFGENL 145
Q87SZ7 1 KAIREQVKYTGNVDAAKAVGKAVAERALEKGVT 71
Q87SZ7 1 DAAKAVGKAVAERALEKGVTAVAFDRSGFQYHG 84
Q87R79 0 KLIEGTVASVPPQGGRKHPQQEFLQVDTSKILF 230
Q87L90 0 VDVDGESLSIHSALVSKFEITTSNPQLVAKFAE 341
Q87N14 0 LAAEARSEVKPEENKAKANAKTEKVKERRQRRK 698
Q87LP9 1 HRHRYEVNNVLRPQIEKAGLKVSGLSADKKLVE 482
Q87LP9 1 PQIEKAGLKVSGLSADKKLVEMIENPAHPWFVA 494
Q87RB8 0 KGIITLLDRYNIELRGKHAVVVGASNIVGRPMT 159
Q87R11 1 DHPFCLFKATEDGEILKTDYGIEQRYLRSIMSP 161
Q87R11 1 PSTLETLAQFSILSRLKEPENSSIFSKMRVYDG 373
Q87R11 1 QLFDRASLNAELEKIEKTAGISNPKDFRNEIVN 541
Q87RP5 0 LGVEINHRSDHFTIVGKPHTSAAALDILKTLYV 53
Q87SF7 0 QTLASITFQNYFRLYEKLSGMTGTADTEAFEFQ 386
Q87HH8 0 GGCIPLVTSVLNAELAKSGIEVKNDVCEHFAYS 476
Q87FN4 0 LPIAACMHEPHLLEMGKVNYWGYNPYLFMVPDP 196
Q87SZ9 1 EVTLKYFQAKPVIEQLKRVSRPGLRVYKKKDEL 75
Q87SZ9 1 AIVSTSKGLMSDRAARKAGLGGEIICYVA---- 117
Q87FQ8 0 DAGNITKVLYPNDNHEKGKTLRLMQQYFHSAAS 278
Q87S19 1 EIIGQVWRAAREIGLQKETGRRPITNVVMMGMG 151
O50286 0 VIPSIAYTEPEVAWVGKTEKEAKAEGIKYEVAT 361
Q87PX0 1 SLPLAGGSNTLVRMNLKEVAKRAASRDDFFSNV 271
Q87LR7 0 GAEVAEGDVLLILEAMKMETEVRAARGGIVQEL 560
Q87NB7 0 ERVSTSKGRSNNPARRKPKKNAGEQGARNKHR- 296
Q87KZ5 0 QTPALVEAIDAAVKAEKAVHIMGLMSPGGVHSH 109
Q87ND3 1 WRPEEVDVSSDRIDYNKLPDHEKHIFISNLKYQ 64
Q87JE5 0 IDSGVLKPTNKVASTNKGKGGKPAMVYTLTSDE 214
Q87SZ0 1 LKPRLVDIEQISSTHAKVTLEPLERGFGHTLGN 24
Q87KN0 0 SRDSLINQIECYLKLLKNNPYSSTSTIPTESAE 556
Q87J81 1 DSGDVAHLFDERNAAVKIMLKMAIDAATKAGKY 733
Q87K59 1 ---------------MKNELDPSKVLQAYENVM 1
Q87IJ9 0 KLNVVPDHPQLKKLSLKAKLKKGLKPDNFAEGD 111
Q87TR5 0 ALALVSFLLFQQWQVAKNPAPQAVEQAQSSSSL 26
Q87T85 0 FWVESEKRFVKLRLTAKGMRIIDKKGIDTVLAD 53
Q87RF0 0 QRLESVVGQPSFNQDEKRTFLEELTAAEGLERY 202
Q87KN0 0 IAHKLARVARIHFSRQKLAASGPNLPQRQVLFA 201
Q87PC0 1 GTNREIRNSQYGAMKVKDGIVDCFEKKGLPRPN 112
Q87RV5 0 KPNIMVIHAGLECGLFKEPYPNMDMVSFGPTIK 441
Q87IJ8 1 ARLNKLAAELEAEKEHKALDKFAELVEKLQTSL 397
Q87K87 0 ---MGRSFEVRKASMAKTAGAKIKVYSKYGKEI 13
Q87PA4 0 KIEGINQTGAFVNWGIKEKDLLIPFSEQRARFT 92
Q87LG8 1 LGEKAITHGLAIASGVKASKDLGNMPPNVANPA 184
Q87SU4 0 GDKVKIVKFRRRKHSRKQQGHRQWFTEVKITGI 84
Q87LK2 0 LGVNTITPLISERCGVKLDQKRFEKKLAQWQKI 117
Q87PC2 0 QALAVRFSTEKPAKKEKVVEETPKTTQPKNNSK 547
Q87N09 1 VKRDVEERGRTMESVLKQYQQTVRPMFMQFIEP 164
Q87R29 0 KHYDIIWDESQSHKFKKISQHLQAMKEFKNT-- 164
Q87T10 1 PMRNIPVGSTVHNVELKPGKGGQLARSAGAYAQ 146
Q87MV2 0 NIATNVLNQRVAASQRKLIAEKFAQALMSSLET 54
Q87M02 1 LQRKTRSTLSVNAGGGKSKNVQVEVRKKRTYVK 82
Q87JS9 1 AEDFTYRLEAATSEILKSGKTMLGLGGDHFITL 113
Q87IJ9 1 IQENLPKKEGSIKATDKGFGFLEVDSKTSFFIP 30
Q87IJ9 1 EQSLTRFIGRVKMFKGKLNVVPDHPQLKKLSLK 95
Q87PC8 0 -MKYQQLENLECGWKWKYLIKKWKDGEAITRHI 15
Q87MW0 1 VGAGNVPVVIDETADIKRAVASVLMSKTFDNGV 227
Q87T85 1 RFLPNLQTHRFWVESEKRFVKLRLTAKGMRIID 43
Q87SC3 1 HPKEDILYHHFLKHYGKQQTMENLEKEHQELAE 75
Q87Q60 1 LPPEERREAGQEINKAKGVVQQAIAARKDALQS 63
Q87GT5 1 HLACKGAEKVLLTAPGKGDIKNVVFGVNESVIQ 260
Q87RF5 0 ASLWGPAHGGANEACLKMLEEIGSVDNIPEYVE 273
Q87M70 0 TLPGSKTVNLAKSGLLKPEMKTGFEYSDCWVDD 143
Q87RG8 1 PNTDIDNLALGEIIREKFNTACFVGNDVRGMAL 181
Q87PC0 0 QIVIQEYAAPKNIPEEKAKRRLTDIIRATIQVT 457
Q87RX3 0 SVIAYTDGETLVGQPAKRQAVTNPTNTLFAIKR 53
Q87NB7 0 SRKRERARSQKIRRAVKRHEERVSTSKGRSNNP 276
Q87RX2 1 DRNQGDESAADKFKEVKEAYEVLTDSQKKAAYD 50
Q87HV5 0 SVLSSISWANKQISFGKMLSIWGKVYIGNFIGA 110
Q87RP5 0 LLEAAKAELSAQVAATKE--------------- 363
Q87RH4 1 LGVYHEQTAPLIDYYGKEAAAGKTKYLKFDGTK 183
Q87ND6 1 RLKVYQLPLASRTARGKPIVNILPLEDGERITA 615
Q87KU4 1 TIRMMGDKVSAITAMKKAGVPCVPGSDGPLDND 124
Q87HH8 0 ILASCWGEHILKPQLVKLHDTNDNFLGNIQKDG 547
Q87T18 1 ------------MATMKDVAQLAGVSTATVSRA 4
Q87LV4 0 PKSGQRRRKTFRKKKSKPKS------------- 449
Q87PC2 0 RIALIGPNGCGKSTVLKLLLGQLEAQSGRLHCG 362
Q87S31 1 HIAKSLENTDKVESTLKGTNDFVTNVDKEAEYI 33
Q87S31 1 EHCIVAEEQGLIEGKDKDVQWIIDPLDGTTNFV 76
Q9AJH1 0 LAKLISEAAPKSFKEKKHPATRAFQAFRIYINS 201
Q87ME7 0 LFGDESLVVGRVAPMDKAQEGDVTFLSNPKYAK 32
Q87N45 1 VERDELLETLQEGSEVKGIVKNLTDYGAFVDLG 195
Q87N45 1 GVDGLLHITDMAWKRVKHPSEIVNVGDEIQVKV 228
Q87N45 1 KVLKFDRERTRVSLGLKQLGEDPWVAIAKRYPE 259
Q87HS0 0 LSANFVEQQLNLIQNVKVTRVEIKNEGWVTDQG 36
Q87KQ3 1 VIKAVRGATGLGLKEAKALVDGAPAPLKEGVDK 85
P74956 0 YTEDEKLNIAKRHLVEKQVQRNGLKPNEIVIED 507
Q87QX7 0 GMSAEEKARVKKEKDRKALIKKMGINPYHDWEA 71
Q87KQ4 0 IEGGYSEAKLDATDRKKWLELTLEDDALQTQLE 995
Q87SZ1 0 SFKVAANDVVSIREKAKQQARIKAALEVAEQRE 149
Q87NJ7 0 MKHIRLDKALDYLLGDKLK-------------- 455
Q87RH5 1 TVGLASYVERMKEGQDKIYYLTADSYAAAKNSP 436
Q87RH5 1 PEVKYIFEINPEHELVKRMADEADEEAFGRWVE 586
Q87SW0 1 NEGNYIRFPQGVKKYIKYCQENVPEDGRPYTSR 226
Q87SW0 1 QAGGIASDGVNRIMDIKPTELHQRVPFFVGSKN 305
Q87QV2 1 LEIINRSDVLPLDFNQKNSEEQRLKYRYLDLRR 114
Q87MH1 0 VGSLLTYEATADFETEKVTIEGWNGPVEVDQIK 50
Q87QV2 1 YAEFVGIYGAKGLAWMKVNDRAAGVEGIQSPVA 352
Q87M02 0 VRDERKAREVANYRAGKFREVKLARQQKSKLEN 674
Q87GW6 0 GLRWPVVDGKETQWRFKEGSDPYAKAGSGWDFY 670
Q87GW6 1 RILINKLILDATDPLSKQTDFKKCPVKITKVA- 813
Q87RP0 0 DLDSCERAIQRNAKKAKGGDKDAKFELTVLEKL 171
Q877T5 0 SRHYAHVDCPGHADYVKNMITGAAQMDGGILVV 89
Q87JY6 0 ALYQLSDDELTPERITKLARDCEKQILGLECSP 446
Q87M02 0 LSELANKMSVKATEVIKVMMKMGAMATINQVID 348
Q87FQ8 1 DFASYVKAHEEMGKQYKDQAGWAKKAILNTALV 776
Q87NC8 0 TTDLVVTVVDIVENVKKTAIVDSATEAHRLDTL 259
Q87J42 0 NYLPGQHLPIEVDINGKKIGRRYTLSSSPSRPG 323
Q87TE8 0 GVFSDDFIDSYIALKSKDVERINMATHPLEFEL 448
Q87MD9 1 EYVNPEDVPADVVAKEKEVQVEIAMNEGKPAEI 192
Q87MD9 1 VAKEKEVQVEIAMNEGKPAEIAEKMVVGRMKKF 204
Q87RF9 0 LKKAIDRFMLVLSTLHKLNPEGFAQATNVKGRK 99
Q87S07 0 INEVEGISRVVYDISGKPPATIEWE-------- 508
Q87MD9 1 EKAEGLSFAEEVALAQKG--------------- 279
Q87FC7 0 AAEVPKFYERKKNNGNKPWIINVQNQKGGTGKS 106
Q87FR0 0 KYGGSDFKVLTSVKTEKVESESLPQSLELRLPP 728
Q87LU7 0 YAGGFEALKGISLQVKKGDFYALLGPNGAGKST 28
Q87TR5 1 RGAMYPLTKAQYTSMAKMRMLQPKLQAMRERIG 378
Q87M01 1 PRENFRPGDRVRGLLYKVAPEARGFQLFITRSK 184
Q87H06 0 NVMVSTGTSDADFQKTKDIMALSDELIFICVDI 113
Q87M01 1 LFRVEVPEIAEEIIELKGAARDPGSRAKIAVKT 223
Q87M01 1 LKGAARDPGSRAKIAVKTNDKRIDPVGACVGMR 238
Q87MW8 0 PTIAVDTHIYRVSNRTKFAMGKTVDDVEQKLLK 148
Q87TE1 1 FFGLSGTGKTTLSTDPKRALIGDDEHGWDDDGV 262
Q87TE1 1 GWDDDGVFNFEGGCYAKTIKLSKEAEPDIYNAI 288
Q87TM1 0 ----------MKTMKSKLAVALMAAGLSFNALA 6
Q87RI8 0 TIPLEYQDNSYKSLIAKLELHQQAAESPELKRL 188
Q87MW8 0 PQSILDLGVDGLKEYIKTIGLFNSKAENTIKTC 76
Q87KQ5 0 NSIQAKNNGSVKLHNAKFVTNKDGKLVITSRAS 963
Q87TK7 0 LMLPGSAFIHPHTQLRKALTDHAALKIASMTAG 255
Q87NG8 0 LVAESEEVATTAFSQVKAIIRSIYSNPPAHGSA 293
Q87PJ7 0 ITQQFGAKPLFENISVKFGEGNRYGLIGANGCG 22
Q87Q77 0 ETLQRSIVLSHAAGIGKFMSDETVRLMMVLKIN 89
Q87L18 0 QNRGATNHDEFLIQQAKIVSAMNKMDADIIGLM 515
Q87N61 1 SLASGKVRVKSSLQRLKEEAFKYSLAFYSQQCE 472
Q87S63 0 KIEQQALSNEHDEASEKRLQALNDELNEKEREY 438
Q87TE8 0 LFDDVKFSNDMSGSFFKIDDIEAAWNTGSDIEG 150
Q87RX3 1 SLGIETMGGVMTKLVEKNTTIPTKANQVFSTAE 412
Q87RX3 1 IEKMVQEAEANKEADKKFEELATARNQADQMIH 526
Q87QJ9 0 DVMFEVGKFDEYGKLSKQDLDQLQAGARVDIET 156
Q87SJ9 0 ATLLTPNMKEFEDVVGKVKSDQELVEKALALVK 204
Q87S68 1 IIGCQATFSEEPNKQKKFEAVIKVPKGQLVASA 49
Q87N36 1 GDLQGPKIRVSTFKDGKITLKVGDKFTLDSDLP 84
Q87N36 1 DMHYARRLARDAGLEAKLVAKVERAETVATSES 218
Q87Q24 1 AGYQPYPDKAGSALQEKLFLRAFTNETYLWYDE 80
Q87MC3 1 VEDLRNVVEGDPSPCGKGTLMLKRGIEVGHIFQ 399
Q87TC0 0 RFEARTTLKKVPRLGPKAFEQCAGFLRIMDGKN 544
Q87LL3 0 KTADYWGVYFDSMQGIKEALDENGIEIPFPQMD 263
Q87TC0 0 TQADSKTRLEDLYLPYKPKRRTKGQIAIEAGLE 106
Q87S69 0 PQQSRKPLARVAFLGAKGSYSHLASREYFSRKN 115
Q87QX7 0 TSTLQQAASTRLGYGVKKTMMLAQRLYEAGYIT 308
Q87SU8 0 TIFITPTMPVSTEQLFKSVCELFEYTG------ 145
Q87LP9 0 EALKHAGLKNRLNVTIKYVDSQDIETKGVELLE 325
Q87HV5 1 VMVELWCQDYIPVKDQKVVDLMSRDVVAIDASD 378
Q87T13 0 AVPGATGGNVIVKPAVKA--------------- 207
Q87NB7 0 VEREYLVRVFGEVTEQKVRNLVKGVELEDGLAR 150
Q87RV5 0 NQEKLAELFNYYTELLKAELGKVETGIVTFNEE 291
Q87PK8 0 LGGGLSNFELIYEEMPKRIPKYLLSVAKCPKII 266
Q87LS4 1 KGDTITVFDLRFTAPNKDILSEKGIHTLEHLYA 44
Q87TP8 0 GFSVDIIQAVLARRPTKPADFDQRVKAVSHFRE 553
Q87ME9 0 DNRIFPHAVIGEENQDKKYGGEDTTVVIGDRNV 74
Q87MD7 0 CEVLTLRSDDTIPRLMKNA-------------- 289
Q87MW0 0 PMSIQAAGVAEADFVAKLDELAVEAFDDQCTGA 826
Q87KU7 1 TLNDGEFPSAELHKEVKDWVRKEIGPIATPDVL 580
Q87T12 1 QDHSQKVNKKMYRGAMKSILSELVRQERLIVVD 104
Q87HJ2 0 IRIIQTLCDLSGIPQDKAFVNIQNYGNTSAATV 270
Q87T12 1 RQERLIVVDNFSVEAPKTKELVAKLKELELTDA 128
Q87KA6 0 GISVSRVGGSAQTKIIKKLSGGIRTALAAYREL 396
Q87PB3 1 AYLFALVAGDFDVLRDKYTTMSGRNVDLEIFVD 200
Q87QX7 0 INAFVPEEFWDIHANTKTKDKSDFKLLVAQKDG 233
Q87SL8 1 VRTQERLIMKSVVEYGKMPKKSFIALFTGNESS 302
Q87QL7 0 EGDPMPEATMKAIEFAKKNDVPVVLTLGTKFVI 216
Q87SL8 1 GKQFDVTRERIRQIEAKALRKLRHPSRSETLRS 599
Q87S56 0 IMPKEGFILVDASSYKKAEDVLALLRKTMGSLP 144
Q87G93 1 -MITKLINEDLIKLDLKASSKEDVFKELVAVLH 15
Q87G93 1 DLIKLDLKASSKEDVFKELVAVLHAQGRISDQT 24
Q9AJH1 0 VSSPQLDDAERGFSFMKDGPLDMRMDPTSGIPV 119
Q87T57 1 FVDFFATRKATLPGLGKIAKLSRSKVLPLFASM 237
Q87FC7 0 KKNNGNKPWIINVQNQKGGTGKSMTAVHLAACL 116
Q87M06 1 FFPLTVNYQERTYAAGKIPGGFFKREGRPSEGE 72
Q87LP7 0 NAEVSGRPKHIYSIWRKMQKKSLAFDELFDVRA 260
Q87M06 1 AELAEAKLVEAYQITEKMARYDRIHEIAAEVNE 263
Q87NH5 0 ----MTYAPVSDVLSGKLAVDSEVTVRGWIRSR 12
Q87RM8 0 GTEEASKTDSRGRNIRKATDAKLFDSREENQGS 254
Q87K98 0 FHAKAVVLTVGTFLGGKIHIGMESSSGGRAGDP 161
Q87N45 0 PSEIVNVGDEIQVKVLKFDRERTRVSLGLKQLG 246
Q87TM1 1 EMDKIVEAANVETDPAKRAEMLKGVEATLYNDA 462
Q87GB6 1 DTGIKVTVAHPDGLQDKFPQTAATGDGPDIVFW 67
Q87N07 0 LNLEDFTQRVNADVVNKIVNLASRNAGFIAKRF 392
Q87L92 0 ---------MLDSVASKPELAELLTLTKTEQIL 7
