Q87KB0 1 GAELRNDAHVGNFVEVKNARIGEGSKANHLTYL 347
Q87QP6 0 -------MIIGVPKEIKNHEYRVGMIPASVREL 9
Q87N23 1 GFGAAKALSTRNDEPQKASRPWDKGRDGFVLGD 217
Q87N23 1 VNAHGTSTPAGDVAEIKGVKRALGEEGAKQVLV 316
Q87SU2 1 VMVAKGGWHGLGNTRFKSSVNRAPRQRTLGTKG 130
Q87SY2 0 EYQIDITQPPKYDASCKVINPDSQRIVNLTFNG 515
Q87LF4 0 VVCRNTNGHLLEAVLAKLEEAGALVETGEDWIS 265
Q87T13 0 EFEVGAELTVELFNETKKVDVTGTSKGKGFQGA 104
Q87KA0 0 VEETPFDQVVCTQTTGKYDLIAANGDVTAAEIK 80
Q87S21 1 CLVGKGITFDSGGYSLKPSNFMSAMKADMGGSG 207
Q87LQ4 1 SSLAYLTGKPVASAKIKAQPEHFQVREDLGFAF 21
Q87L90 1 LREYSANTQIVDVFAEKKTKLTADELVGLLRRL 390
Q87ST5 1 GCMNDEFDAIVTGPVHKGVINRAGVAFSGHTEF 124
Q87QR9 0 SSQGGKFIEEVQKDKYKPGKHIGSWYVEPPSSE 365
Q87L43 0 GALDCAGVNDRKQGRSKYGVKRPKS-------- 115
Q87QH6 1 EETINKLTGEIGKLENKIAETRAKQQALAIRNQ 127
Q87TC0 0 RETDSFVADVIKRGNLKVQKIIVSEAGASVYSA 408
Q87FR0 0 FASITYDHKRYQWQDAKWQNRAVTQKRDEALSF 259
Q87KY4 1 LIAIHMSEGELVTIKAKSVVLATGGAGRVYHCN 186
Q87KY4 1 LAEFVVFGRVAGENAVKRAAEFKGWNDAAIDAQ 412
Q87JV4 1 TSRGELLDSVAAIEALKQGKIGALGLDVYDNEK 248
Q87L48 1 VAEPVREIAQNPDNVYKYTAKGNMVAVISNGTA 68
Q87RL6 0 EANKEMPRYDANHPKIKAANEAAKDGDPCVIRF 128
Q87L48 1 DRKGVIHTRRDDLNEYKQLFANNTDKRTLEDVI 245
Q87RI9 0 IGIFVVLAVVILSSAIKTVPQGNNWTVERFGRY 24
Q87S57 0 NIQPHNSKLKTFIRDLKPVVEMGPDALIMSDPG 87
Q87KQ4 0 KITQGDDLAPGVLKIVKVYLAVKRRIQPGDKMA 1050
Q87RN4 1 ---------MKASILTKLETLVERYEEVQHLLG 7
Q87TC0 0 HPEAYPVVKAIAEKNRKDIKALIGDSTFLKGLH 584
Q87M72 1 EVKRSSEIYGKTNIGGKGGTRIPIAGIAGDQQA 232
Q87LQ0 1 GDKIQLVGDDLFVTNTKILAEGIEKGIANSILI 325
Q87QY7 1 DISLAGRIIANFPEHLKEEQRIGDALTELGELA 58
Q87RR7 0 EAIFFFLPVGVCWSTVKKLGGTPILGITLGVTL 179
Q87QY7 1 ADGSVKELKSAFPLLDKEVIDSSVLKKKALVEF 220
Q87TJ3 0 YSIDLVVCGHHQDFWSKILSSTRQLINCSPVDM 117
Q87RK0 0 EDEELEEEILALIKNDKMTADHAIHSVIEEQAC 96
Q87PR1 1 IEKVVEKPVEKIVEVEKPVEKIVEVEKVVEVEK 53
Q87KQ4 0 ----MVYSYTEKKRIRKDFGTRPQVLDIPYLLS 12
Q87LR3 1 LLHAALRQVLGEHVTQKGSLVKAENLRFDFSHL 583
Q87T03 1 RIFGPVTRELRGDKFMKIVSLAPEVL------- 113
Q87TF4 0 ELGFRSTNLDLIYGLPKQTKASFAKTLEQVLEM 221
Q87RK0 1 IVVNPSEAEVEEAKAVKAAFLAEKEELAKLKDL 242
Q87JQ6 1 CENAYFIKQREEGYADKSILEIIREMYQYGDML 242
Q87T85 0 KRPVTGNNRSHARNATKRRFLPNLQTHRFWVES 25
Q87R42 0 GLLTGVETRTSSPVCIKRGKDFQSVNLKGFYPA 487
Q87S90 1 ------------MSEYKDTLNLPETGFPMRGNL 4
Q87S90 1 RGNLANREPEMLERWYKEDLYGEIRKAKKGKKS 33
Q87SL5 0 PELASRDHVKKTIPLIKEALKEANLTSQDIDGV 59
Q87S90 1 NNEFWTEIQKVRGAVNKLLEAARAEKTIGGALQ 825
Q87SZ4 0 IGSGLGKTGGRGHKGQKSRSGGKVRPGFEGGQM 38
Q87G49 0 KTGSGKTLAFVLPMLHKSLKTKSFSAKDPRAVI 65
Q87T10 0 RHIGGGHKHHYRVIDFKRTKDGIPATVERLEYD 67
Q87SV0 1 DAMGWTNDSFKLASELKGSERSQALCDNKIDAF 175
Q87SL8 0 KMATKDVLAGLTPREAKVLRMRFGIDMNTDHTL 563
Q87LW3 1 QPGTIGPIKQIEELKSKGHQLVYVGDVVGTGSS 228
Q87H06 0 EHLVEYVERVRAEFPDKVISAGNVVTGDMCEEL 151
Q87LW3 1 TDTYRYLNFHKMEQYTKKADEVIFQEPA----- 853
Q87KY4 0 IAAAEANPDLEVALISKVYPMRSHTVAAEGGSA 37
Q87KA7 0 VSTDRGLCGGLNINVFKKAVTDIQTWKEKGAEI 96
Q87LR3 0 AQKAKTLEKELQKLKDKMAAAESANIMGKAVEV 736
Q87LZ5 0 EIREPAGWGDNPMNKPKDDDKSQATPEVKEEEK 617
Q87MD7 0 ICTSINHIVCHGIPAEKDEIGSNGQMKPAVLKD 83
Q87HS0 0 GWVTDQGELVYLDLNTKQLCSNESNQTIDFIVP 62
Q87KK2 0 SENVPADLVQGVIDTIKHDHEILIHMYQNDSWL 104
Q87KN0 0 GSKPQWMNPVVNELANKMMTHINDAAAANALTL 510
Q87S63 1 EASEKRLQALNDELNEKEREYAELEEVWNTEKA 450
Q87RT2 0 VEKPARVAHLMGQWLLKGWAKEAIFNLKLPMKG 292
Q87FQ9 0 EAQQRVGSAEFQQRLQKARDSHWVNYTEVSQLK 271
Q87RR7 1 VSHCLTRLRFVLNDTDKADTKQLEALRMVKGCF 40
Q87PC8 1 ENLECGWKWKYLIKKWKDGEAITRHIDTSEADA 22
Q87Q02 0 VDDMVKISEFVKHFLVK---------------- 367
Q87N14 0 LFKALGSFLFGGSEEVKEEPKQEEKKSNRDNKR 583
Q87MM3 0 KGRKSGKGFYTYKGKKKEVDKSIYKLLKLTPES 591
Q87R36 0 VVEPNSDKLCWLYPDGKEDTQVEDHITISDYLT 130
Q9L7P5 1 AVKVTLGPKGRNVVLDKSFGAPTITKDGVSVAR 41
Q87TE1 0 ILDPRDTYVDPLQWESKAKDLAERFINNFDKYT 509
Q9L7P5 0 AVIKVGAATEVEMKEKKDRVEDALHATRAAVEE 392
Q87HX7 1 SEFSGVEPNPTKETLDKAVAIVKDQNIDFILAV 74
Q87LL1 1 AMDKPARPMVAIVGGSKVSTKLTVLESLSKIAD 192
Q87RR7 0 YLGVTEPAMYGINLKYKFPMLSAMIGSACAAAI 394
Q87QX7 1 --------------MGKSLVIVESPAKAKTINK 2
Q87SY2 0 KVGYIGFVPPQIMVWDKKNLEGNVVAKDIKETA 192
Q87LG6 1 WDPKLHTAISDLEVENKDTKGHMWHFRYPLADG 190
Q87GB6 0 ADGGYAFKYTSEGYDVKDAGIAKEGVKDAMNFV 200
Q87LG6 1 MLGDTGVAVNPEDPRYKDLIGKEIILPIVDRRI 242
Q87I60 0 VVTDVEMPRMDGMHLVKRLRETEAFRQMPIIMF 268
Q87LG6 1 DGEIKKTHGEIKRIEGKLGNEGFVAKAPEAVVA 909
Q87SE3 1 GIEVDAYGKVSGVKVVKTALGEPDDAGRRRPEP 363
Q87SB1 1 FLVIQETSGRIQAYADKEVQKELKEKYQGLDIG 96
Q87SB1 1 RIQAYADKEVQKELKEKYQGLDIGDIIGVKGAL 105
Q87SB1 1 DLIVNEDSRNAFVVRSKVMSAIRNFMISKQFME 182
Q87LN9 1 VRSIVLSWYNSRLEAIKPGVSQKDPKTRLQEFL 146
Q87P89 1 YRDQGTQFDVVIMDPPKFAESKAQLNGACRGYK 303
Q87R81 1 AKNRRFDGFRKGKVPLKMVAKMYGKAVRQDVLG 51
Q87R81 1 RFDGFRKGKVPLKMVAKMYGKAVRQDVLGEVMQ 55
Q87R81 1 FRKGKVPLKMVAKMYGKAVRQDVLGEVMQRHFI 59
Q87RF1 0 ---------------MKLNFSLYRYNPDVDTKP 1
Q87R81 1 RKNMERELKQAVKTRIKEQAIEGLVKENEIDVP 286
Q87KQ4 1 VEQGRRVTARHIRQLEKDGVDHIEVPVEYIVGK 278
Q87KQ4 1 LNEDGTFADELITARQKGESGLHPREHAQYMDV 638
Q87KQ4 1 TVGYMYMLKLNHLVDDKMHARSTGSYSLVTQQP 1240
Q87LR1 1 QKALAAALGQIEKQFGKGSIMRLGDNRAMDVET 21
Q87LR1 1 GKANACNYLREHPEIAKTIDTKLREMLLSPAQP 315
Q87L54 1 -------------MNEKYAALKSNVRMLGHLLG 3
Q87K32 0 VVSAKIWLDVMNAEASKGAAIKHLQETMNFTPA 192
Q87L54 1 --------MNEKYAALKSNVRMLGHLLGNTIRD 8
Q87L54 1 MGVIADGSLLDTLRRVKAFGVHLVRLDIRQEST 381
P74956 1 TVATILQLLKLPDGTVKVLVEGQQRAKINHFKE 88
P74956 1 QEVIVRSAINQFEGFIKLNKKIPPEVLTSLNGI 141
P74956 1 GHRRTYIGSLPGKLIQKMSKVGVKNPLFLLDEI 407
P74956 1 YYTREAGVRGLEREISKICRKAVKNILLDKDIK 548
Q87KH7 1 ELLTKTDELQKMWILRKIVHPMGEIDAMEFLID 384
P40607 0 KCVIGNGVVLSPEALLKEMKPLEERGIPVRERL 81
Q87PC0 0 SNRLKKNIGKIGKWARKEKLDCYRIYDADLPEY 415
Q87L45 0 EQMNSGVLAGYPVLDIKATLFDGSYHDVDSSEM 568
P40607 1 PYHVAMDQAREIARGKKAIGTTGRGIGPAYEDK 124
O51859 0 LNSGVSIKLIDEREADKQDHFMYEGGIQAFVQH 211
Q87KK2 0 TYVLFDEDQAPTDGIAKIFFTHPAQDHERLVVF 152
Q87RE7 1 PPGKRMGHAGAIISGGKGTAEDKFAALEAAGVK 255
Q87RF5 1 AMELERIALSDEYFVSKKLYPNVDFYSGIILKA 355
Q87TJ3 1 LSDDSKVLIKKAVSLAKPLDAKVSFIHIDVNYA 27
Q87K32 0 EELLFPTMNAKFGATHKVVVSAKIWLDVMNAEA 174
Q87LU2 1 SMGLGPISAIYQARFLKYLEGRGMKDTSEQRVY 207
Q87LU2 1 AAETKGRPTVILAKTVKGYGMGEAAEGKNIAHQ 390
Q87LU2 1 LAKTVKGYGMGEAAEGKNIAHQVKKMDMTHVLH 401
Q87QV2 0 IKLTGEVRVRPESQVNKDMATGEVEILAKGLEI 84
Q87SR3 0 YVFADADAGFEGDETMKIITMPHVSEITAAIYY 561
Q87T09 0 LKKGPFIDLHLLKKVEKAVESGDKKPIKTWSRR 20
Q87MA8 1 AAVGLRDKQKANAVLDKQSKIVEVAGIEANGKK 44
Q87MK4 0 IEMPEDRVKAGKSRTGKVILSASQEGDHIELAI 491
Q87TF9 0 IAMYPKLAGQHAKYLEKQLKDLKLGMTSGGKQG 59
O50286 0 CLNVGCIPSKALLHVSKVIEEAKAMADHGVVFG 60
Q87KX9 1 KGQAFNRVKIRKLLSGKVLEKTFKSGDTCEVAD 49
Q87S36 0 TVQTPAFMPVGTYGTVKGMTPEEVKGTGAEILL 40
Q87L44 1 MPRRRVIGQRKILPDPKFKSELLAKFVNILMVD 16
Q87L44 1 AIFEEALENVRPAVEVKSRRVGGSTYQVPVEVR 75
Q87LL2 1 --------------MSKIFDFVKPGVISGDDVQ 2
Q87RC2 0 ----------MLCSIYKSSKKEGTYLYIPKKDD 6
Q87SJ9 0 ELGDRLIVAVNTDESVKRLKGPGRPVNPTDRRM 380
Q87KA4 1 LKEAKRTATEIIEQANKRKSQIIDEAREEAQAE 80
Q87MX2 0 PKKAAVAAAIARAKARKAQQETESQPIEETASQ 702
O51859 1 AGFRAALTRTLNSFMDKEGFSKKAKTATSGDDA 299
Q87KQ4 0 KLRLVIFDKDAPAGTVKDIKEQEVYMGEIPLMT 114
Q87TP8 0 GVASSRTIRGHRFMGEKEFTIDSAEQYPAILEE 193
P66346 0 PTRKERFTVLISPHVNKKARDQYEIRTHKRLID 58
Q87KX0 1 GRIEKLDRSSVSDVINKGGTFLGSARFPEFKQV 63
Q87QA3 0 KYCEPDVFDAKTEIDGKVAVLPASEWKIAPEAA 131
Q87SL5 1 IAGGVSANRRLRAELEKLAKKIGGEVYYPRTEF 280
Q87PC2 0 LSGGEKNRLLLARILLKPNNLLILDEPTNDLDI 456
Q87JQ6 0 NFDLNKLVETIEEHGSKNICAIITTVTCNSSGG 180
Q87SY9 0 NRRLAFARTRDNEVVAKLFNELGPRFAARQGGY 77
Q87RE8 1 HAGGRGKAGGVELHDTKEGVKEFAQKWLGKNLV 65
Q87SZ1 1 VRRMYGVLEKQFRNYYKEAARLKGNTGENLLQL 76
Q87TK7 0 SCGNLAHAVAASCSSEKKNILDFTHANVALISA 57
Q87MD8 0 LKAGVHFGHQTRYWNPKMKPFIFGARNRVHIIN 25
Q87PA4 0 ASGRIVGTTKFNKWLDKTPANYEVNEEVDLIIA 138
Q87K44 1 LSERAAPTIIVHDEQDKFTKHSISAQAADEIEN 237
Q87N07 0 GITPEEMIAAVSEEHQKDFAGFDISFDNYHSTH 87
Q87Q96 1 ELAKHIADKTNWRTLLKGDGEPIELQDRFAELL 173
Q87FR0 0 LWRNQHSVQTNIGSREKDLKITKTKKIKKKHER 22
Q87T07 1 SIRVTIHTARPGVVIGKKGEDVEKLRAAVAKIA 78
Q87RC8 0 LHLLAVDHFGHGLSSHKSRDNYYPFHDYIADMY 70
Q87KD4 0 LIDCLADIAAGKAVPVKQDDELANYAKKLNKEE 195
Q87Q52 1 GHCRQFMNELSTAKELKVQLPERDEKSLHEYLP 145
Q87IJ9 0 CNGDNGTISIDKEVVYKLGDTLEIVLADVNQEN 625
Q87T07 0 AVEPKGDKPKKQRKGRK---------------- 231
Q87SZ4 1 INKAVTVKGLRVTKGAKAAIEAAGGKIEE---- 131
Q87MM3 1 LDLILTGKQLRAKKAKKLGVVDACVPDTILLDV 180
Q87MM3 1 QHGLEKGFAQGQELEAKRFGELVMSSESKALRS 272
Q87LG6 0 ARMIMMTMHFVKDENGKPQVPFKTVYVTGLIRD 532
Q87R04 0 VLWSEQLPEGFKKFCAKVSIDTSSIQYENDDLM 387
Q87N29 1 TRLRVAVADTAAVDQDKLKQLGAAGVVVVAGGV 436
Q87ME6 1 IAKLDSEYKVKAQALEKASARREAEEKAKLFKT 108
Q87N61 0 KVRVKSSLQRLKEEAFKYSLAFYSQQCEIPVEQ 477
Q87TP8 0 DAFFDNVMVMADDEALKKNRLTLLNNLRNLFLQ 662
Q87R66 1 LIPKLNEMDGEKVAKVKVGLYEPIRDGMLVNLF 134
Q87SB0 1 SKEYNSQAKSFSEDALKALTRYFWPGNVRELMN 344
Q87PC0 0 LTKLGIENAKPVQAGVKFKATNEQIYRCCLWSR 35
Q87H06 1 TLKSRSQVNLTRDFTFKHSGRQWSGVPVIAANM 37
Q87RU9 0 AAKGAAFELATASTAQKNQALAIIADELEANSA 24
Q87NF6 1 LQKRIKATVANLAAAPKTAKPVAEKAAVKPVVE 28
Q87NF6 1 AAAPKTAKPVAEKAAVKPVVEKAVAEKKVAAAK 40
Q87LJ1 0 ----MKKIVLATGNQGKVREMADLLSDFGFEVL 12
Q87NC7 0 CHSRMLEFEFPNCGSHKVYSMAHDEVRSMKEFI 232
Q87P10 1 EDGEPLVEKILDTAGQKGTGKWTGINALDLGIP 259
Q87MY9 1 ETFYPELSKQEVKDRVKEMMAKVGLLPNVINRY 147
Q87RN4 0 AKEDDEEMREMAQEEIKDAKEAIERLADELQIL 84
Q87ND6 0 LALALANIDEIIDLIRKAPTPAEAKAGLIARGW 397
Q87KQ4 0 --------MVYSYTEKKRIRKDFGTRPQVLDIP 8
Q87LV4 1 RGHHQEQKNKNISQQSKEGMLLRDNVYGTIDED 129
Q87KQ0 1 KKAAGVKSGSGRPNTEKVGTVTDAQIQEIAETK 96
Q87SZ3 1 FVPGIRPGEQTAKYIDKVMTRLTLAGALYITFI 368
Q87MM3 0 VALAKKQGKTPIVVKDKAGFYVNRILAPYMNEA 491
Q87M02 0 VDLRYYSIIYQLIDEVKQAMGGMLAPEFKQEII 793
Q87K87 1 DPDMNLSLKHLIAKAKKDQVPAHVIEKALDKAN 55
Q87Q26 0 PPFHRSAEDAAMGSQRKLDNLKANQRKKGVKQQ 254
Q87K87 1 AKKDQVPAHVIEKALDKANGGGGEDYVPARYEG 69
Q87FN4 1 LRDISRSFWRGDQGYLKEFATRLMGSRDIYSAA 390
Q87LL2 0 VGTDSVNAVLEAAAKVKAPVIVQFSNGGAAFFA 53
Q87K44 0 PQGLVKAAIQGHTGAIKTYSLGQGPVWVLTHGW 71
Q87S16 1 PGEAEVSHLGLAGSNKKSAFYEDGKRQKERFDN 325
Q87LV4 0 DAFLVGGGVRDLLLGQKPKDFDIATNATPEQIK 66
Q87R11 0 ALCKANQGLMEFVEMFKAPIKVLHPLLTATQEG 265
Q87KQ5 1 CARIFGPVKDYECLCGKYKRLKHRGVICEKCGV 73
Q87KQ5 1 PFIYSKLETRGLATTIKAAKKMVEREEAVVWDI 394
Q87KQ5 1 GMYLSGPAEAEKAYRTKQAELHARVKVRITETV 539
Q87SV0 0 NFDTFKRLHPAFANLKKEDMVKAGISIPLHPGA 294
Q87KQ5 1 LSSSEVTDAAARPAAGKDMRPAIKLVDEQGNDV 1071
Q87RV2 0 QKMPKMYLDMLASRLGKSAVDINSMAGQMMAWS 325
Q87KQ5 1 KEPAILAEHTGTVSFGKETKGKRRLVITRDSGE 1166
Q87PS1 0 EDGEKALRKYKLEWVQKHNQIAKKYNQIKKKQY 115
Q87KQ5 1 SFQETTRVLTEAAVSGKRDDLRGLKENVIVGRL 1338
Q87RR1 0 LVPDFRGRMDVALDLMKDNPPDVFNHNLETAPR 183
Q87SF7 1 IGSRNDRTLRRLRKIVKEINNYEPTFEALSDEE 25
Q87M27 0 SELPFMPDFEALIATFKALGWKTAIASGGFTYF 188
Q87HP4 1 YECLHVERIADVEPQWKKADLVILDRQLPDGDS 42
Q87HP4 1 RAPDSADQANADKVMTKDLEIDRATREVIFKGD 131
Q87QP1 1 ENLQSTRNSISKQIGQKMAAGDKEGAEEIKKQI 60
Q87PK8 0 WFHLGENAPLLGCGCDKKGCLDSYLSGRGFELL 180
Q87Q76 0 CAAEQGLDLPMLNEELKKLK------------- 561
Q87LI2 0 GLESGVTVGPVITMASKHRLEAVIDQALQEGAT 331
Q87M70 1 QAPLLSVFGGKLTTYRKLGEAAMKKLEPYLPQM 371
Q87S35 0 AVIFYFMIYRPQAKRVKEHKNLMSSMGKGDEVL 44
Q87RH0 0 PQLHSFAVGLEGAPDLKAAREVAEKIGTVHHEM 281
Q87J42 1 VEQRQVFVCGPDGFMQKAKNLLLKKGLPEAHYH 489
Q87JS0 1 AQVVAWLEARPEVKSAKAGDLLDANYL------ 101
Q87LU3 1 FSKFGETEVQPLSRIKKISGANLHRNWVMIPHV 406
Q87LU3 1 NKKGIYELSEELMAVSKKARAGKLTAADMQGGC 527
Q87RT2 0 VDNGMMADSLMETGQIKHHMVDGFKFEPDRKNV 252
Q87TR5 0 IGVRMPNKTIATGDQAKFEATLWVGPKLQQEMA 298
Q87L13 1 KSDDNRKNVITLLEEPKSIIKKINKAQTDTETP 216
Q87RW0 0 VLAVAPENMEAFDAICKRERAPYAVVGVATEER 567
Q87MI2 1 GESATLTIEEHVKVVNKTVEFANGRIPVIAGTG 61
Q87TP8 0 EEEFLKVPSEALVYTMKGDQKYFPVYDENKKLL 280
Q87R04 1 EGSCKAYDRELDPQVKKIFTEYRKTHNAGVFDI 133
Q87R04 1 ALYGIDFLMKDKLAQFKSLQERFENGEDLQMTM 199
Q87T10 0 NIPVGSTVHNVELKPGKGGQLARSAGAYAQIVA 149
Q87R04 1 LSVAADSLSAIKYATVKPIRDEDGLAIDFEIEG 543
Q87RM8 0 TTSKPAKRTSGTLSLKK---------------- 370
Q87RV9 1 RKAVQRQEREAEQLAAKVRKEEARKAREAEADE 82
Q87PR1 0 KPVEKIVEVEKVVEVEKVVEKVVEVESKLATAS 69
Q87S73 1 TLERAADALRLPEWDQKIAHLSGGERRRVAICR 158
Q87S73 1 KARMARFEELQNTEHQKRNETNELFIPPGERLG 303
Q8GRF5 0 TDVAVKKIDEVLAAKEKELMEV----------- 179
Q87KD5 0 HLQGKLFVDYLSPLKRKRIQDKLAKIKRFNEKQ 152
Q87G09 0 TREQLDRAIDAFIQVGKDMGII----------- 391
Q87SF5 0 APNYSVGVNLVFKLLEKAAKVMGDYCDVEIVEA 137
Q87SQ9 1 FCRSVGLPTNLFDMGVKELNHAKLREVAEASTA 314
Q87GW6 0 TQGDPEAPVNKGLNCIKGYFLSKIMYGQDRLTQ 84
Q87ST5 0 GCLGREEIETITPTLEKIQKEKGIKLIGPLPAD 233
Q9LCJ0 1 SACGGGGSCGQCRVKVKSGGGDILPTELDHITK 82
Q87QB4 1 -MNTLEKIQKNLENFSKSERKVAEVIMASPQTA 15
Q87QB4 1 LDPMQVNRAVDLLTQAKRISFFGLGASSSVARD 128
Q87S93 0 --------MANSKSAKKRAIQAEKRRQHNASRR 8
Q87NG8 1 VVAAPADPILGLTEEFKKDPRAEKINLGVGIYK 38
Q87NG8 1 KLLFGADAEIVAEKRAKTAQAPGGTGALRVAGE 113
Q87SS1 0 YAKELNIAYHDRVELIKHHQVVEMLEKRVNELQ 529
Q87K44 0 RAAPTIIVHDEQDKFTKHSISAQAADEIENVEL 240
Q87MZ3 1 VPWSIDLIATRAIDMAKHLKADIINEGDINTRR 235
Q87MZ3 1 LLTGGYDIPREIEGLCKPAFETGLPIFKAQGNT 318
Q87MZ3 1 ATVFVFPDLNTGNTTYKAVQRSADLVSIGPMLQ 663
Q87LP3 1 AQRILSEDEMAKFSQLKQQGRYLAKRFAAKEAA 43
Q87RK1 1 GDTVIEFDLALLEEKAKSTLTPVVISNMDEIKE 132
Q87HZ3 1 GEEVAAPAEDGNVAVFKIKNAHGLHARPGAMLV 291
Q87RR6 0 NAEAAVADLNSVFYFYKRLIELRKQVPVITDGR 464
Q87QU5 0 FVMVPIILGYTSWTYYKMFGRLDDQYIEDNKNS 359
Q87RF5 0 IGSVDNIPEYVERAKDKDDPFRLMGFGHRVYKN 294
Q87K98 1 GVIEGIGPRYCPSIEDKVMRFADKNSHQIFIEP 282
Q87RF9 0 KLNPEGFAQATNVKGRKRVYFADNEETLLANGN 115
Q87R36 0 TMPTIQDRSLNVQVYRKLGESEVRNELDVATVV 281
Q87QJ9 1 LGYDLTFVRNITDIDDKIIKRAAENGESCESLT 72
Q87MS1 0 MTPFAWKATDELREELKSATLFQCEADFMLRVY 252
Q87PH3 0 EFFNEDDPDVDHSLGQKVAITWVESWEVVLNDK 357
Q87KR5 1 LIDFIAEKADLSKAQAKAALEATLEGVTGALKE 21
Q87KR5 1 GTFKVNHRAARTGRNPKTGDEIQIAAANVPAFV 63
Q87SZ9 0 LPSVMGGLGIAIVSTSKGLMSDRAARKAGLGGE 107
Q87MY9 0 GQCQRIGIARALILKPKMIICDEPVSALDVSIQ 186
Q87KA6 1 ISVSRVGGSAQTKIIKKLSGGIRTALAAYRELA 397
Q87QJ9 0 -MLKIYNTLTRQKEEFKPITAGKVGMYVCGVTI 15
Q87KP8 1 GKAAISFAKESRMEVRKVVWPTRQETMQTTLIV 81
Q87R66 0 YQTAPLCTGDPDELIPKLNEMDGEKVAKVKVGL 121
Q87GL7 0 GEHPFQLYSMGTPNGQKVTIMFEELLAAGVKEA 55
Q87R79 0 KLIEGTVASVPPQGGRKHPQQEFLQVDTSKILF 230
Q87KT0 0 DDLKVVSKRQPTEEELKDALFCWKVAKYVKSNA 415
Q87RB8 0 KGIITLLDRYNIELRGKHAVVVGASNIVGRPMT 159
Q87R11 1 DHPFCLFKATEDGEILKTDYGIEQRYLRSIMSP 161
Q87R11 1 PSTLETLAQFSILSRLKEPENSSIFSKMRVYDG 373
Q87TK1 1 YIGRIHQSYDRVLGNNKVNVIKGFAKFVDEKTV 110
Q87TK1 1 DRVLGNNKVNVIKGFAKFVDEKTVEVNGEHYTA 119
Q87S23 1 --------------MPKIIVLPHEDLCPEGAVL 2
Q87T03 0 VLGGSHRRYAHIGDVIKVTVKEAIPRGKVKKGD 39
Q87PX0 1 SLPLAGGSNTLVRMNLKEVAKRAASRDDFFSNV 271
Q87L81 1 --------------MLKNINPTQTQAWKALTAH 2
Q87LR7 0 GAEVAEGDVLLILEAMKMETEVRAARGGIVQEL 560
Q87I09 0 YLFLVDAKQITPLPESKLDGASIKHRLAVWIHS 60
Q87RF9 1 ---------------MKTIEVDEDLYRYIASQT 1
Q87K98 0 DRVVGVVTQMGLKFHAKAVVLTVGTFLGGKIHI 148
Q87LG8 0 MEKLGMTSYLAVGRGSKNESMMSIIEYKGNPDS 242
Q87KQ4 0 EFDPKDNLYVRIDRRRKLPASIILRALGKSTEE 202
Q87MD7 0 LCMVAQEALYVGMRTVKPGSTVGDIGTAIEKYI 162
Q87TM1 0 EAANVETDPAKRAEMLKGVEATLYNDAAFVPLH 468
Q87LV8 1 ----------MPEAKKKTIGILAIAGVEPYQEK 6
Q87NG8 0 SFIERQNGMFSFSGLSKEQVNRLKDEFAIYIVG 372
Q87LS4 0 AQQIAKNILAAGVSVNKNDELALPESMLKELRV 154
Q87SF7 0 LGMTVGVNVPNMPPQAKKEAYQADILYGTNNEF 165
P40607 0 RGLRVGDLFDMEAFAEKLKEVMEYHNFQLVNFY 160
Q87LG8 1 -----------MEFSVKSGSPEKQRSACIVVGV 5
Q87LG8 1 ASQARRLADDYESVTTKIIGEQEMEKLGMTSYL 219
Q87L54 0 LKGGLRVTEQGEMIRFKLGLPDVAVNSFNLYAS 617
Q87LK2 0 LGVNTITPLISERCGVKLDQKRFEKKLAQWQKI 117
Q87T10 1 LEYDPNRSANIALVLYKDGERRYILAPKGVVAG 96
Q87M02 1 GTPVDRLIEQLADAGMKKASSDNVTDEEKQKLL 29
Q87MV2 0 NIATNVLNQRVAASQRKLIAEKFAQALMSSLET 54
Q87M02 1 LQRKTRSTLSVNAGGGKSKNVQVEVRKKRTYVK 82
Q87M02 1 QEIIGLAEVRDVFKSPKLGAIAGCMVTEGLIKR 822
Q87LQ6 1 SVERIKSLQWEAKRRLKQLDIYNVSTKHGDGWL 117
Q87LU2 0 LRDRLGLQDILTDEAVKELPYLKLEEGSKEYEY 434
Q87TP8 0 TELAGYIAEQIGADVEKSKRAGLLAKCDLMTSM 383
Q87RR1 1 PTEQKEVLRKPDWMKIKLPADSQRIQDIKAAMR 43
Q87RB8 0 VVLVGEDPASQVYVGSKRRACEEVGFVSKSFDL 53
Q9LCJ0 0 TLIVLALVLVILFAKSKLVPTGDITISVNGDAD 26
Q87HP1 1 GSGDGYAKEMSDDFNKKAAELYAEQAKDVDIII 242
Q87KY1 0 -----MKPNYSVNTSPKRSDEPIWWGLFGAGGT 11
Q87RG8 1 PNTDIDNLALGEIIREKFNTACFVGNDVRGMAL 181
Q87SJ9 0 EKALIEAVKKARARGEKVVMTNGCFDILHAGHV 340
Q87KY1 1 ---------------MKPNYSVNTSPKRSDEPI 1
Q87RX3 0 SVIAYTDGETLVGQPAKRQAVTNPTNTLFAIKR 53
Q87NB7 0 SRKRERARSQKIRRAVKRHEERVSTSKGRSNNP 276
Q87RX2 1 DRNQGDESAADKFKEVKEAYEVLTDSQKKAAYD 50
Q87RH4 1 TGDMLRAAIKAGTELGKQAKAVIDAGQLVSDEI 46
Q87RC8 0 VAGGHHCHLEQILEVAKRILGVVNKI------- 274
Q87KU4 1 GEIALRILRACKELGIKTVAVHSTADRDLKHVL 26
Q87LS9 1 ----MSMKGKETMSNEKIVVGKFGATYGIRGWL 12
Q87GN4 1 GFHAMLFDWFKVVESGKLATSTVQRNIASHQLA 280
Q87S31 1 HIAKSLENTDKVESTLKGTNDFVTNVDKEAEYI 33
Q87FQ8 0 ENIYIFGLDVEGVKALKAQGYNPFDYYNADHLL 705
Q87RV2 1 ----------MSEDVSKNLSETLFVKHKQAKET 6
Q87T08 1 ALEILTFSNKKAAALVKKVLESAIANAEHNEGA 47
Q87N45 1 SLVDVRPIRDTAHLENKELEFKVIKLDQKRNNV 149
Q87N23 0 GMGMLSPVGNTVESSWKALLEGKSGIVNIEHFD 25
Q87LQ4 0 SEVTDMADVEQRLEKVKQVGVPNYFGSQRFGND 154
Q87Q87 0 YMDEVGTPDSSRIWDAKEYQAGNIVENSKEGFR 273
Q87PB5 0 GQTFWILDFSMLHKSEKTVDLREARDRFQQAFA 620
Q87N45 1 KQMENDPFNAYVADNKKGTLVNATVTAVDAKGA 449
Q87JQ6 0 ---------------MKRIPEPFRIKMVEPIKM 1
Q87RH5 1 EIFLRELISNASDASDKLRFQALSNPDLYEGNA 49
Q87RH5 1 IQTVVRDEDGKETDEKKWEQINKAQALWTRNKA 230
Q87SW0 1 NEGNYIRFPQGVKKYIKYCQENVPEDGRPYTSR 226
Q87QV2 1 PLELVDVADLVKDVEFKVFSGPANDEKGRVAVI 304
Q87QV2 1 VKDVEFKVFSGPANDEKGRVAVIRVPGGAELTR 314
P40611 0 TKRPEQTDSGRKRKGPKRGDDDSAKKPKVKKAH 799
Q87PB3 0 LYDNDTIVTALSKVVQKGESTTLELDGEGLELR 46
Q87R38 0 GLKAGCVAGVIINRTQKEIPDHATLKETEARSI 224
Q87SC0 1 RKLTPADVASLMKVSDKIADLNVGRFQEWSETF 54
Q87SC0 1 GLEAETLSDADFEYAQKHLRMLSGLYGLLKPLD 105
O51859 0 HEHALSVDFLNSKEYGKLADLSEVLDGLLEEGA 689
Q87SC0 1 FKDCKNGQYKVISFYAKKARGMMARYIIENRIE 208
Q87J42 0 NEGIIRQGDKVEVLEYKEPEFYPDNSPVRMTLT 266
Q87H79 0 GNQQKVAIAKGLMTKPKVLILDEPTRGVDVGAK 414
Q87MC3 0 ASGLYTWLPTGLRVLRKVENIVRQEIDNAGAVE 51
Q87MD9 1 -------MATVTAALVKELRERTGAGMMECKKA 9
Q87MD9 1 LVKELRERTGAGMMECKKALVEANADIELAIEN 23
Q87MD9 1 QVEIAMNEGKPAEIAEKMVVGRMKKFTGEISLT 211
Q87QB7 1 DDFNYRYVDIQAEGISKADLEKTVGKPVETVPQ 44
Q87FQ9 1 PVFPEKYRTFDAAGTQKYIKDNQDRVHLYMYLQ 364
Q87TR5 1 RGAMYPLTKAQYTSMAKMRMLQPKLQAMRERIG 378
Q87M04 0 SSNDALQKVKRIYFAEKAGHTGALDPLATGMLP 38
Q87M01 0 ERIFEALEIALATSTKKKYEIEIDVRVAIDRKT 36
Q87MW8 0 PTIAVDTHIYRVSNRTKFAMGKTVDDVEQKLLK 148
Q87TM1 0 ----------MKTMKSKLAVALMAAGLSFNALA 6
Q87RI8 0 TIPLEYQDNSYKSLIAKLELHQQAAESPELKRL 188
Q87MW8 0 PQSILDLGVDGLKEYIKTIGLFNSKAENTIKTC 76
Q87PB5 1 KIVTDDLEKNKDRVSMKTDRLDETIAFLRWLGD 209
Q87PB5 1 IEQNLMEVSTSWDDRLKESIIANFGESKGLPLS 495
Q87L18 0 QNRGATNHDEFLIQQAKIVSAMNKMDADIIGLM 515
Q87RX3 1 AKGQKMAAPQVSAEVLKKMKKTAEDFLGEEVTG 119
Q87RX3 1 INYLVDEFKKEQGIDLKNDPLAMQRVKEAAEKA 251
Q87HH8 0 VVIGGGLLGLEAAGALKALGVETHVVEFAPKLM 164
Q87S68 1 SATHEDLYAAINEVEQKLERQLNKLTHKPEARR 80
Q87MA4 0 LPKSNRHLVWILSQLRKILPTACPVIAVNKAKE 130
P74956 0 EVGGDLLTIETQSMPGKGKLTQTGSLGDVMQES 619
Q87MC3 1 AEEVITSLVRNEVSSYKQLPLNLYQIQTKFRDE 125
Q87L75 0 LDKIGNLGGLGDTVNVKSGYARNFLIPQGKAVM 21
Q87KT0 1 LLVQDRDQGMVSLDDLKVVSKRQPTEEELKDAL 402
P40607 0 LRVGDLFDMEAFAEKLKEVMEYHNFQLVNFYKA 162
Q87MH1 1 ---------------MKVVEVKHPLVKHKIGLM 1
Q87S69 0 PQQSRKPLARVAFLGAKGSYSHLASREYFSRKN 115
Q87T13 1 VDVTGTSKGKGFQGAVKRWNFRTQDMTHGNSLS 122
Q87FP3 0 VHKQQAGFSQTSQIHKKDRHIKGQARYCNHKRF 376
Q87PC5 1 LADGRVCVDGKEIYVAKDLKVGLFQDTSSF--- 158
Q87SU8 0 TIFITPTMPVSTEQLFKSVCELFEYTG------ 145
Q87NB7 0 VEREYLVRVFGEVTEQKVRNLVKGVELEDGLAR 150
Q87KT6 1 MADDIAIKINQATEAYKDAIMPPFTKALFKYVE 124
Q87RV5 0 NQEKLAELFNYYTELLKAELGKVETGIVTFNEE 291
Q87P10 0 KGILQSSLVAWRKVAAKSLEAGIPMPCTTSALT 409
Q87ND4 0 LVDMGKYDQHILEDYSKAELDELDSYIDHKRDL 124
Q87HP1 0 GRPAPKLITKEMVDSMKAGSVIVDLAAANGGNC 281
Q87SY0 1 RQGRAIDHDQSGSMELKKRQGYF---------- 295
Q87KU7 1 VNILYTAPTAIRALMAKGNEAVAGTSRSSLRIM 366
Q87R79 0 ELGKSNILLIGPTGSGKTLLAETLARFLDVPFT 126
Q87QX7 0 AAISTKGMSAEEKARVKKEKDRKALIKKMGINP 65
Q87RL6 1 RFDRYNEMVDKLLAEDKAYKCYASKELLDEIRA 93
Q87PJ7 0 ATSRAKQIDKIKLDEVKASSRQNPFIRFEQSKE 297
Q87QL7 0 EGDPMPEATMKAIEFAKKNDVPVVLTLGTKFVI 216
Q87TJ3 0 -------------MSYKHILVAVDLSDDSKVLI 3
Q87SV0 0 TGVYYPTGGAICKLVNKGRKDHNIRCSVESTGG 51
Q87RP0 1 NTGVVPVPDLRLDALAKIVNPQKVLPTTMEFVD 75
Q9AJH1 0 VSSPQLDDAERGFSFMKDGPLDMRMDPTSGIPV 119
Q87M04 0 CLGEATKFSQFLLDSDKRYRVIAKLGERTNTSD 72
Q87T57 1 FVDFFATRKATLPGLGKIAKLSRSKVLPLFASM 237
Q87PB5 0 RALRRIARWLLRNRSGKSTVGELIAIYKQDVNV 1415
Q87TE0 1 GELVQLDEAYQRIISSKEYPAAVQKLLGELLVS 33
Q87Q87 0 FDCIWHGEGGLKGVPGKGAALNAISNHWFKLFK 82
Q87M06 1 ETGFVGSPKRREIGHGKLAKRGIAAVMPSVDEF 405
Q87M06 1 GARDDISEFAPRIHTMKISAEKIKDVIGKGGAV 559
Q87M06 1 KDGLVHISQIAEKRVEKVSDYLTEGQEVQVKVL 661
Q87N45 0 PSEIVNVGDEIQVKVLKFDRERTRVSLGLKQLG 246
Q87TM1 1 EMDKIVEAANVETDPAKRAEMLKGVEATLYNDA 462
Q87N07 0 LNLEDFTQRVNADVVNKIVNLASRNAGFIAKRF 392
