Q87QP6 0 -------MIIGVPKEIKNHEYRVGMIPASVREL 9
Q87PX0 0 VLMPYVGDQTEAQIYKKLRHFWIMLDRTLPDAF 157
Q87N23 1 VNAHGTSTPAGDVAEIKGVKRALGEEGAKQVLV 316
Q87QB3 1 MKSIEHHAQYILRKGSKDLGSHTLEGSRSGMAM 372
Q79YX1 1 YIVKPFTAATLKEKLEKIFERL----------- 120
Q87J42 0 RRFMIAKADGSMITARKYPQMVTVKSALLADGV 51
Q87N17 1 IQASLFKRLAEATEGVKRDAEVSLSFEIDEQRL 41
Q87QR9 0 SSQGGKFIEEVQKDKYKPGKHIGSWYVEPPSSE 365
Q87HZ3 0 DWGDGNKVFVAIGIAAKSDEHLGILKQLTKVLG 101
Q87RC6 0 SRAVNRHGTKIAAIVKKAKQTPPEEYPAKIDRL 296
Q87TC0 0 RETDSFVADVIKRGNLKVQKIIVSEAGASVYSA 408
Q87QH6 1 ALAIRNQTASNRRDVQKHLHTSRTNEAMAKFDQ 153
Q87T34 1 LGCKNVIFSPEFLREGKALYDNLHPSRIIVGER 146
Q87KY4 1 LIAIHMSEGELVTIKAKSVVLATGGAGRVYHCN 186
Q87L48 1 AKEPVPESVLKAAGVEKLEFGSDYIIPKPMDPR 378
Q87RF0 1 TFNVGSFAVGQETMKLKDIYAALKKTYCGSIGA 154
Q87PJ7 1 MTAASQARERLLSDNAKKKAQIAELQTFVARFS 256
Q87KY9 0 DSQLITGVKRDIKLVEKVDVQAGDELTVLDISM 41
Q87K59 0 QEHLKETFLKKIAMLAK---------------- 82
Q87SS1 0 PIHRKIMFTWAVNMGAKMALCHQEKRKPSMMLR 305
Q87LQ4 0 ILSSLAYLTGKPVASAKIKAQPEHFQVREDLGF 19
Q87TP8 1 YTMKGDQKYFPVYDENKKLLPNFIFVSNIESKE 293
Q87TP8 1 SHFRELEAAESLAAANKRVGNILAKFDGELAEE 581
Q87SU7 1 YVEGDSEHAPYFAQPVKLGKEGVEEVLSYGELS 268
Q87RH3 0 FSSDCLETLEEIAGENKEIFMEAGGEQFHYIPC 284
Q87JS0 0 -MKLDKIDNKNRRIRKKLFLGEFAILGFEISCE 15
Q87MR4 1 HLTATFHAQPGKEQQLKEVLTQALEPTRNEEGC 18
Q87S19 0 YHFGVDDFDNMTNINKKLREKLQHKCEIKAPTV 54
Q87FQ9 0 LYPDEKQLEGLFADRLKCKQGILDSVRWHGYLP 618
Q87LQ0 1 IRIEEALGERAPFNGLKEVKGQA---------- 426
Q87QY7 1 GYDLPNYPEEPSTYEEKAIKSAYDKIKGSAVNP 121
Q87QY7 1 KVSDPVIFGHAVKVYYKDVFAKYGKLFEELGVD 277
Q87QY7 1 AVFWLDENRAHDAELIKKVNAYLPDHDTTGLEI 501
Q87FC8 0 AHKPLSLYEKGKEMQAKLESGEAEDQKALAKMF 164
Q87NH0 1 HPKEKLDVQAGDTPTQKHALKAILKHMNDWATD 61
Q87RK0 0 EDEELEEEILALIKNDKMTADHAIHSVIEEQAC 96
Q87RP0 0 VGLPNVGKSTLFNALTKAGIEAANFPFCTIEPN 43
Q87MX2 0 LLPQQLQWHAKAEEYDKLEELNLKDCIECGACA 407
Q87I60 1 DNRAKALSLGANDTITKPEIGRMVNMMDKYVFA 307
Q87MA4 0 VVINDNFGALACWFSEKHHVTFMSDSFVSHKGA 66
Q87M70 0 LYEANDFASATSSASSKLIHGGLRYLEHYEFRL 58
Q87RR6 0 QKSRDNSRTPMQWNSQKHAGFTEGTPWLEVAQN 427
Q87RK0 1 NNKIVVNPSEAEVEEAKAVKAAFLAEKEELAKL 239
Q87QU5 0 TLAALWLRPLGLDYRSKIEEPKWRNTWDICISI 108
Q87JE5 0 TIKRRLIDSGVLKPTNKVASTNKGKGGKPAMVY 208
Q87FP3 1 SAHQAQAHAAKVFNADKTYFVLNGTSASNKVVC 198
Q87LU2 0 TDDEIFALKRGGHESSKLYAAYKNAAETKGRPT 366
Q87FP3 1 QEMHDMYKELNVKQLQKAMFRSEYFPQMVHKPD 619
Q87TQ7 0 KTVAEYYKIKVADLLSKRRSRSVARPRQLAMAL 397
Q87N14 0 MAMGKVMPRYIPKPAPKKEERVQEETVVAIATV 822
Q87QM1 0 LGVGVGYAIIAYTSTLKGISKLEVNRDALLAEL 362
Q87S90 1 ATPQWFVSMDQAGLRAKALESIKGVQWMPEWGQ 437
Q87N36 0 DLGVEIGDPELIGVQKKLIRRARSLNRVVITAT 267
Q87L18 0 -----------MDTLIKPSILALTIASALSANA 5
Q87TP1 0 YAEDITNGQVTGRIVIKL--------------- 324
Q87SW1 1 AQITHFFERYKELESGKWVKVDGWADVEAAKAE 148
Q87G49 0 KTGSGKTLAFVLPMLHKSLKTKSFSAKDPRAVI 65
Q87JR8 0 KEVGNIVESVPNPYLEKSQWGWLIDPKGLRILL 328
Q87Q78 1 GEVVGKGIKRMVASGLKPYDQEAVDDLVHRFNE 211
Q87SV0 1 IARADSGIENVQDLAGKRVNIGNPGSGDRATMG 139
Q87QR9 0 VLQHTLDYSGKQSVGRKGDKVIDGRVMIQDLLP 141
Q87HM2 0 HEIQDLVENELMQGPYKALARSYIEYRHDRDIA 74
Q87QY7 0 KGELGGYYLLDDALVSKLMRPSETFNAIIDK-- 726
Q87N61 0 ADGRSICLENFLIDVAKKMQLGGFGDNAIQDAQ 735
Q877T5 1 TAAICTTLAKVYGGEAKDFASIDNAPEERERGI 44
O50286 1 MADHGVVFGEPQTDINKIRIWKEKVVNQLTGGL 84
Q87IT4 0 ETFFEIKQKDTYMAAGKTYQQPKR--------- 107
O50286 1 HKGVHEGHVAAEVISGKKHYFDPKVIPSIAYTE 337
O50286 1 KGVHEGHVAAEVISGKKHYFDPKVIPSIAYTEP 338
Q87RW0 0 ISNALPELCDDGERGGKFQLRDVPNDELSMSPL 523
Q87MW8 1 NSKAENTIKTCKILLEKHNGEVPEDRDALEALP 98
Q87S19 0 VAEAQHSSDGTIKWAMKVGDQDVETVYIPEEDR 86
Q87S57 0 RDPNQGTCTNACRWEYKVEEGKENDAGDIVEKF 206
Q87N36 0 RMNFSHGTSEDHIQRAKKVRAIAARLGRQVAIL 51
Q87PC8 1 ENLECGWKWKYLIKKWKDGEAITRHIDTSEADA 22
Q87N22 1 LVNNAGITRDNLLMRMKDDEWNDIINTNLTPIY 98
Q9L7P5 1 NEGLKAVAAGMNPMDLKRGIDKAVAAAVEQLKE 116
Q87M18 0 FRRIRLKDPLKQKQLLKGLVQLSEEGAVQVFRP 413
Q87RR7 0 YLGVTEPAMYGINLKYKFPMLSAMIGSACAAAI 394
Q87QX7 1 SFNDLMNYDFTARMEQKLDQIAEGEVNWKAVLD 554
Q87QI3 1 DTINRYNEEQRLKYCVKEIVANRKVWILKDEHG 26
Q87QL6 1 TKTKAKSKRAPRPAKYKYIDTNGQEKTWTGQGR 98
Q87N61 0 ERLMPAMQSTLTADEMKRVAFIFARGGRFENAT 808
Q87QB9 1 PVRKMPETGELIRSALKPIGETYTSTAVDTNKD 157
Q87LU7 1 TYAGGFEALKGISLQVKKGDFYALLGPNGAGKS 27
Q87TF9 1 LPTSESSTPEDVVAKGKVLYTAGDAERGLTACM 119
Q87FC8 1 YPNVGDLGRPTIVKLHKQFSTLTAEQQQNLLDK 220
Q87Q92 0 LGLGDQGIGGMGIPIGKLSLYTACGGISPAYTL 171
Q87LG6 1 GVAVNPEDPRYKDLIGKEIILPIVDRRIPIVGD 247
Q87LV4 0 KPKDFDIATNATPEQIKQLFRNCRLIGRRFRLA 82
Q87LG6 1 APEAVVAKEREKLEGYKETLAKLEEQKKTIAAL 935
Q87LR5 0 EVSVHREEIYMRIQAEKGNGNVASGNY------ 54
Q87RR7 0 MLVAMVVPAALTLILYKRAQAKGELEAANA--- 460
Q87SB1 1 LKEKYQGLDIGDIIGVKGALHKSGKGDLYVNME 118
Q87KA9 0 TVLADTAIRGEDLDAAKAEEAKRRAEEKIQNQH 94
Q87RP0 0 VKEVRAWTIPVGATAPKAAAKIHTDFEKGFIRA 322
Q87R81 1 AKNRRFDGFRKGKVPLKMVAKMYGKAVRQDVLG 51
Q87QA3 0 EAEQDLRDLLNIPDNYKVLFCQGGARAQFAAVP 71
Q8GRF5 1 IKKDAQERMDKSVEALKNNLSKVRTGRAHPSLL 20
Q87TF4 0 LDLIYGLPKQTKASFAKTLEQVLEMQPGRLSVF 229
Q87S35 1 NNEVVIKKDFITAVLPKGTLKSL---------- 102
Q87MC3 0 AKTIAELVEQHGLPIEKTVKTLFVKASDEIDAP 275
Q87QR9 0 SGLVIKCDDQETFEYLKKCGMQVIPERY----- 460
Q87KQ4 1 LFFSEERYDLSTVGRMKFNSSIGREDAQEQGTL 403
Q87KQ4 1 FTTIHIQELTCVARDTKLGSEEITADIPNVGES 843
Q87KQ4 1 KDKRALEIEQMQLKEAKKDLTEEFQILEGGLLN 956
Q87KQ4 1 MVKEQQELAKFREFLQKVYDLGDTRQKVDIASL 1146
Q87S19 0 IPALEIMLDDLGFGLSKRRVTVSTSGVVSGLDQ 193
Q87PG6 0 SNEIKGDQEMILLLSKKNAEERLAAFLYNLSTR 163
P74956 1 TVATILQLLKLPDGTVKVLVEGQQRAKINHFKE 88
Q87KH7 1 SQIRRFNLRTGDSIAGKIRPPKDGERYFALLKV 99
Q87LY4 1 ASRVKALIAEEENPALKLRVYITGGGCSGFQYG 30
Q87SJ9 0 ---------------MKPILPDYNSAGVLIIGD 1
Q87T20 1 FERFESKLQMHQGHLTKAAVELAKDWRSDRALR 73
Q87QY7 0 DYLTDLFPILELGTSAKMLSIVPLMNGGGLFET 565
Q87KK2 0 TYVLFDEDQAPTDGIAKIFFTHPAQDHERLVVF 152
Q87RT6 0 PLIENKTFVVRAKRRGKHDFTSIELERYVGGGL 115
P0A2W2 1 -------MSNIEERVKKIIVEQLGVDEAEVKNE 9
Q87MD5 1 RQEAHKDVLKIYFHKQKGEFFAKSVKFKYPRQV 37
Q87QR9 0 GKMQLVTPIKKDVYNLKTPIRQAYTESLDKWIE 273
Q87LU2 1 SMGLGPISAIYQARFLKYLEGRGMKDTSEQRVY 207
Q87RP0 0 SKEELAAVGYLNFLTLKPTMYIANVNEDGFEDN 219
Q87L44 0 KSELLAKFVNILMVDGKKSTAEKIVYTALDSMA 34
Q87LU2 1 AKRGEVEKSVIAEAIKKFDIDTEKTNPLYA--- 873
Q87RC6 1 IFYSEKHVNYQIITKNKDLEQVCAQARDADVVM 25
Q87LL9 0 AHRGADVVITGTPEGAKIEE------------- 214
Q87SZ6 1 NMTTIALNEGTLHHPVKGRHSGSKVYMQPAAEG 86
Q87LL1 0 LGPESTAALAEILKNAKTILWNGPVGVFEFKNF 301
Q87TK1 0 EVMEAEGPTLHTHSVPKEVVKEADGSLTLHLEN 235
Q87RF8 1 ENHILAIAQAVAEVRAKQGTTGPLFVGKDTHAL 73
Q87RF8 1 LAVCIDYLYRHREAWGKDVAVGKTLVSSALIDR 340
Q87L44 1 RRRVIGQRKILPDPKFKSELLAKFVNILMVDGK 18
Q87S23 0 AVLEAKTGETVLDVALKNGIGIEHACEKSCACT 32
Q87L44 1 TAVKKREDVHRMAEANKAFAHYRW--------- 148
Q87NI5 0 ------------MNAVKVYIKQRFNKLSSHLSE 4
Q87GY5 1 QDTCDMLAVNIGKEILKTIPGRISTEVDARLSY 86
Q87GY5 1 ELEAAEGEVVEKLVDSKGAAERPAPMTHAEFLW 265
Q87KX0 1 INKGGTFLGSARFPEFKQVEVREKAIENLKKHG 77
Q87QA3 0 KYCEPDVFDAKTEIDGKVAVLPASEWKIAPEAA 131
Q87TP1 1 -----MFNALVLNQEDKRTIANIEQIDETQLPE 11
Q87TP8 0 LPELEQAIFQQQLGTIKDKTDRITELAGYIAEQ 360
Q87TG5 0 VSIQGPFPARRMRRLRKHDFSRRLMAENQLSVN 18
Q87SZ1 1 VLEKQFRNYYKEAARLKGNTGENLLQLLEGRLD 82
Q87PA4 0 ASGRIVGTTKFNKWLDKTPANYEVNEEVDLIIA 138
Q87NJ5 1 NPDNPLRASVLMDPAGKRINTKDNTPAVVHINM 120
Q87MQ2 1 RTKVEDTRELLDNVQYKPARGRFKVYLIDEVHM 113
Q87QP5 1 LNELQKDGRISNVELSKRVGLSPTPCLERVRRL 35
Q87LR3 0 GEIRTEAGVFRVEDTQKLGNAIAHHGVMAEGVL 524
Q87T10 0 ----------MAIVKCKPTSPGRRHVVKVVNAD 6
Q87RJ4 1 KAGFEKLNELARQKGEKVFVNPRNAAAGSLRQL 194
Q87Q52 1 GHCRQFMNELSTAKELKVQLPERDEKSLHEYLP 145
Q87IJ9 0 CNGDNGTISIDKEVVYKLGDTLEIVLADVNQEN 625
Q87KZ5 1 NLPVPLIYVGDKAVEFKEGGKLSDLAPTMLSLA 478
Q87SZ4 1 INKAVTVKGLRVTKGAKAAIEAAGGKIEE---- 131
P40611 0 EECMILANIASASLVEKAKEPALYRIHESPGEL 482
Q87S68 0 RQLNKLTHKPEARRANKPELVEEEE-------- 99
Q87HX7 0 DAMVQDGYAETLLKTLKMLGEQFAERDDDKWRA 220
Q87FR0 0 IGSREKDLKITKTKKIKKKHERAYELLAEAAYS 33
Q87ME6 1 IAKLDSEYKVKAQALEKASARREAEEKAKLFKT 108
Q87SB0 1 SKEYNSQAKSFSEDALKALTRYFWPGNVRELMN 344
Q87SF7 0 EEALREKIISLAVEVYKAKEEVVGAQVLRNFEK 747
Q87HM2 1 GLGTSWASRLIQQSILKNRIAGLGKNRKTAVFP 311
Q87HM2 1 HVYDDAVLREKAVAIIKHLKDAVNQWADETGYG 521
Q87NF6 1 TAKPVAEKAAVKPVVEKAVAEKKVAAAKTVDVA 45
Q87NF6 1 AGQEDAKAASWATGALKKLLEENLVQKEQLAGN 105
Q87P10 1 EDGEPLVEKILDTAGQKGTGKWTGINALDLGIP 259
Q87MY9 1 ETFYPELSKQEVKDRVKEMMAKVGLLPNVINRY 147
Q87QR9 0 SLALFNWGQDMVFRNGKLVVTDRRQYEHYTEGS 418
Q87KQ4 0 --------MVYSYTEKKRIRKDFGTRPQVLDIP 8
Q87S16 1 RTTDVEATVAQIRALEKVGADIVRVSVPTMEAA 52
Q87FQ8 0 RWLKFCNPGLSQLITEKVGAEWPAKLEQLEGIA 489
Q87R11 0 ALCKANQGLMEFVEMFKAPIKVLHPLLTATQEG 265
Q87KQ5 1 VITVGPYLRLHQCGLPKKMALELFKPFIYSKLE 369
Q87M24 1 DYNIGRVIARPFIGPGKGQFERTGNRRDLSVEP 219
Q87MT1 1 LVKAAIADHSDEAVIEKVKNAPFRAPIVITVIA 77
Q87SF7 1 VGTVSIEKSELLSNALKKAKIKHNVLNAKFHEK 470
Q87LW3 0 NSVLWFMGDDIPYVPNKRAGGYVLGGKIAPIFF 266
Q87HU8 1 ELKKGDDVTVIKDLPVKGTNQVIKQGTVIRGIS 140
Q87R66 0 AIIIKPTLIGSVDFCIKLIEKAKALGMKAVISS 252
Q87MK4 0 KPVAVKEEPKASAPAVKKPQAEATVRVDTSTLD 348
Q87QP1 1 ------------MLDSKLLRTELDETAAKLARR 4
Q87QP1 1 MLDSKLLRTELDETAAKLARRGFKLDVETIRKL 16
Q87SF7 0 MVLNAGQIAEMRTGEGKTLTATLPAYLNALPGK 107
Q87PK8 0 WFHLGENAPLLGCGCDKKGCLDSYLSGRGFELL 180
Q87RG2 1 TGNTEAVAKMIQKQLGKHLVHVQDIAKSSKEDI 27
Q87MD9 0 ADIELAIENMRKSGAAKAAKKAGNVAAEGAIII 47
Q87MY2 0 KDMVIGQVRLLEKTGGKSGHFKAES-------- 150
Q87TE8 1 ARNRSASIRIPVVPSPKARRIEARFPDPAANPY 352
Q87R27 1 ELVKLGVNVRTATMVTKAEKDGLTTKDGEKIPA 245
Q87SV0 0 YHGYNGTSKFAEQGPYKKLRAMFSLHTEPFNII 107
Q87SZ5 1 -------MATIKVTQTKSSIGRLPKHKATLRGL 9
Q87NJ9 1 HNPLGFEHFVGISNRHKALINQAKKLSVLDQPL 212
Q9ALY5 1 AETLYYIVKGSVAVLIKDEEGKEMILSYLNQGD 52
Q87L13 1 KSDDNRKNVITLLEEPKSIIKKINKAQTDTETP 216
Q87MF3 0 DKEIEQLEKKSLELKKKIFSDLGAWETAQLARH 52
Q87N44 0 GPSGAGKGTLCMLLAKKLGFQLLDSGAIYRVLA 27
Q87R04 1 SFLVSEGTEATNKLWAKVMEGIKQENSTHAPVD 54
Q87RM8 0 TTSKPAKRTSGTLSLKK---------------- 370
Q87PR1 0 KPVEKIVEVEKVVEVEKVVEKVVEVESKLATAS 69
Q87KW2 1 TNEVIANVALELMGKEKGQYEFINPNDHVNKSQ 135
Q87PR1 0 VVEVEKVVEKVVEVESKLATASTDSAMQLLSIM 80
Q87KW2 1 GHHEGDIVGKICAETGKSVREVVLERGLLTAEE 445
Q87LW3 0 QIDATATDTYRYLNFHKMEQYTKKADEVIFQEP 847
Q87QP8 0 AIMLPCYHWNRSIVVPKDHPLAKKDLVTIHDLA 173
Q87L81 0 LHFVSNVDGTHIVETLKKVNPETTLFLIASKTF 194
Q87KT0 0 PTEEELKDALFCWKVAKYVKSNAIVYAKGDMTI 425
Q87M33 0 TAGADTIEYCVTHSESKALIGGKLDDPAATQQV 122
Q87TK6 1 SLESKNEHGIIVCSALKKIYRDQIREGNDNVTF 85
Q87LY0 0 ----------MFKFYKKQKFKRLQSTLMTAFLV 6
Q87T24 1 EAEANELRSQREDLEQKAQQAQQEHAQWQERIR 53
Q87PC2 0 LDVTTIEWLENFLKDFKGSIIFISHDRAFIKSM 202
Q87MX2 0 GGDDAIAAAIARVKAQKSNEDNKAEPAVKPAVA 509
Q87MX2 1 IIDGEPMIERVVTLTGKTFKQPRNVWALLGTPV 301
Q87QU6 0 VMTNKQIYKDMTKFWGKLFGINFALGVATGLTM 66
P59562 1 TPTAKKLVKLIKDAKLKVQASIQGDKVRVTGKK 116
Q87SZ4 0 GRGIGSGLGKTGGRGHKGQKSRSGGKVRPGFEG 35
Q87HZ3 1 AHGLHARPGAMLVAEAKKFESNIRVANLDGDGK 311
Q87TJ2 0 VSEQHEEEKLFKGILDKIELVGEDGKALFFIDK 139
Q87KF6 1 VHHPEALQSRLEAMSGKKVLLDPAISNAWFKLV 263
Q87GB6 0 PPKSWEEVAALDAKLKKDGKSAIMWNLKEPYFT 162
Q87RB8 1 KGAVVVDVGINRLDSGKLVGDVEYDKARESASF 238
Q87RG4 1 PSNFIRQIIDKDLADGKHTSVHTRFPPEPNGYL 23
Q87SV0 0 TGSVTGVYYPTGGAICKLVNKGRKDHNIRCSVE 47
Q87KR5 1 LIDFIAEKADLSKAQAKAALEATLEGVTGALKE 21
Q87KR5 1 GTFKVNHRAARTGRNPKTGDEIQIAAANVPAFV 63
Q87L67 1 LETTIEKQLARTNRDKKRPLLQTDNPREVLEQL 118
Q87KA6 1 KLTSPVEVIAPGVIDRKSVDQPVQTGYKSVDSM 149
Q87TC0 0 KNRKDIKALIGDSTFLKGLHAVDYTDEHFGVPT 597
Q87SZ7 1 VIAAASTVEKAIREQVKYTGNVDAAKAVGKAVA 62
Q87TE1 0 GKDGDVAVFFGLSGTGKTTLSTDPKRALIGDDE 254
Q87SZ7 1 DAAKAVGKAVAERALEKGVTAVAFDRSGFQYHG 84
Q87MF3 1 -------MSLNFLEFEKPIAELEAKIEALRDVS 9
Q87LP9 1 VPEKAVISMKDVDSIYKIPQLVKSQGLDDLVCT 245
Q87R11 1 DHPFCLFKATEDGEILKTDYGIEQRYLRSIMSP 161
Q87KQ5 0 SKLETRGLATTIKAAKKMVEREEAVVWDILDEV 398
Q87S15 1 DCKRRMHTNPLRVLDTKNPDIQAILGDAPRLSE 210
Q87TK1 1 YIGRIHQSYDRVLGNNKVNVIKGFAKFVDEKTV 110
Q87TK1 1 VAVKAGRQLSERLFNNKPNAKMDYDLVPTVVFS 333
Q87SZ9 1 MLTRVRNGQAANKVAVKMPSSKLKVAIAALLKA 25
Q87G49 0 LKPPKKDFRNKKATTKKARPQAKKVAKQPAKRD 403
Q87FQ8 0 DAGNITKVLYPNDNHEKGKTLRLMQQYFHSAAS 278
Q87FR0 0 NYDAIATLKWMNEEVYKHFPNAMTIAEESTAFP 477
Q87S69 0 EMQQALQELTKITKHLKVLGCYPSENIKPTQVK 373
Q87LL8 1 --------------MAKVSLEKEKIKILLLEGL 2
Q87SZ0 1 LKPRLVDIEQISSTHAKVTLEPLERGFGHTLGN 24
Q87SZ0 1 IHYIGDLVQRTEVELLKTPNLGKKSLTEIKDVL 291
Q87S65 1 PDIAEVPRAGIVHRLDKDTTGLMVVAKTVPAQT 139
Q87RD6 0 KPQFGDYQANGVMGVAKKLGTNPREFAQKVLDV 48
Q87L90 0 TPIAQAAAAVSAKPAGKLTIIFASQTGNAKGVA 85
Q87LG8 1 FNQFKSVKPETRRPLRKLVFNVPTRRELSLGEK 155
Q87K98 0 EYDFFDPRDLKQTYETKFISGLFFAGQINGTTG 359
Q87T92 1 DHHDIDTPYCFNRKEAKNHGEGGNLVGSALEGR 102
Q87SU4 0 GDKVKIVKFRRRKHSRKQQGHRQWFTEVKITGI 84
P74956 0 TGEITLRGEVLPIGGLKEKLLAAHRGGIKTVLI 718
Q87J81 0 HQLLDELDVDDVEALRKTGATIRQWVLQAPFPA 86
Q87T10 1 AIVKCKPTSPGRRHVVKVVNADLHKGKPYAPLL 17
Q87I05 0 PMGYGGPHAAFMATRDKHKRTMPGRVIGVSIDA 289
Q87LP9 0 RLNVTIKYVDSQDIETKGVELLEGLDAILVPGG 335
Q87MW0 1 PVTNMAELDAMIARVKKAQEEFATYSQEQVDKI 17
Q87MW0 1 KKAQEEFATYSQEQVDKIFRAASLAANQARIPL 32
Q87HL4 0 INIPVDQLRHRMDELPKDKEIVIYCQVGLRGNV 523
Q87MW0 1 DEVKERFASHKAHVLSKTDADKVRKVLLIDGAL 275
Q87MW0 1 ATAIAEMAGVKVPADTKVLIGEGLGKVSYDDAF 316
Q87Q60 1 AESLVALDEVRVQYLGKKGELTAQLQSLGKLPP 33
Q87GT5 1 HLACKGAEKVLLTAPGKGDIKNVVFGVNESVIQ 260
Q87RS9 1 PGAMEGPMKGAAIGHAKQRYTEQRYLGLTEPSI 199
Q87PC0 0 QIVIQEYAAPKNIPEEKAKRRLTDIIRATIQVT 457
Q87H06 0 RSTCTYVGAAKLKELTKRTTFIRVQEQENNVFG 328
Q87L54 0 GAPAHAALLSQPPKSLKGGLRVTEQGEMIRFKL 602
Q87FC7 0 NKPWIINVQNQKGGTGKSMTAVHLAACLALNLD 121
Q87SF3 0 MADATYIEPIQWEVVRKIIEKERPDAVLPTMGG 75
Q87IT4 0 NMIKFAAWFFETFFEIKQKDTYMAAGKTYQQPK 97
Q87KU4 1 LRVAAGQPLSFTQDDIKIRGHAIECRINAEDPE 328
Q87KP9 1 MGFIGGTSDRPAPITDKEADAILNRLEKASEAP 105
Q87HH8 0 ILASCWGEHILKPQLVKLHDTNDNFLGNIQKDG 547
Q87T18 1 ------------MATMKDVAQLAGVSTATVSRA 4
P64128 0 QTRAATMMGINRGTLRKKLKKYGMN-------- 89
Q87S31 1 EHCIVAEEQGLIEGKDKDVQWIIDPLDGTTNFV 76
Q87KN0 0 TLKQQEYLDSDGNCDKKKTQKFAKLLFTLLYPE 777
Q87S31 1 PLKDLQGTVLATGFPFKQKQHSESYIKIVGSLF 159
Q87R36 1 SIQKLAKDLHDRGEDVKLNASCGLRHRLLSVYE 87
Q87FQ8 0 ENIYIFGLDVEGVKALKAQGYNPFDYYNADHLL 705
Q87KQ4 0 SLGDLDAVMPQDLINAKPISAAVKEFFGSSQLS 495
Q87R11 0 SKMRVYDGETLKDTDPKAKSYQEYRDYAGVDEG 398
P74956 0 RLADTIAAHMPLKLVDKQQVLEIIDVTERLEFL 178
Q87QW5 0 ----MTEDRNFDDIAHKFAKNIYGSDKGEIRQI 12
Q87Q87 0 YMDEVGTPDSSRIWDAKEYQAGNIVENSKEGFR 273
Q87N45 1 DISWNVAGEEAVREYKKGDEISAVVLAVDAERE 410
Q87N45 1 KFTGVDRKNRVINLSIKAKDEAEEQEAMASINK 519
P65129 1 LTGDKVTVEMTPYDLSKGRIVFRAR-------- 63
Q87K98 0 DTLGQMSCNPAIGGIGKGHLVKEVDAMGGLMAE 55
Q87HU8 0 SWAQDALDMMYMEEEQKNWAMTGMSADDKTVDC 104
Q87SW0 1 ASGDLSSLLASIRLAAKIVNREINAAGLGDITG 36
Q87M02 0 VRDERKAREVANYRAGKFREVKLARQQKSKLEN 674
Q87S28 1 IVGMGEAFRIAKEEMQKDYDHALALRNRLLNGV 264
Q87GW6 1 RILINKLILDATDPLSKQTDFKKCPVKITKVA- 813
Q87RP0 0 DLDSCERAIQRNAKKAKGGDKDAKFELTVLEKL 171
Q87FQ8 1 VGAEWPAKLEQLEGIAKYATDATFQKEFMAVKK 506
Q87LV8 0 EFSLELRNRDRERRLIKKIEKTLDKIKEDDFGF 93
Q87N14 0 QPNRSQKRKPKPQQAEKAQEPKANAKVAEKGLQ 665
Q87R48 1 TLEDVSLADAPSKLLAKQTFETEGKQVPLSFEL 74
Q87FR0 0 KYGGSDFKVLTSVKTEKVESESLPQSLELRLPP 728
Q87RH0 1 GVGYSWIDTLKAVAEEKVTDQQMETAQYRFPYN 471
Q87R11 0 NSSIFSKMRVYDGETLKDTDPKAKSYQEYRDYA 393
Q87M01 1 DEIESVTFDRITTQTAKQVIVQKVREAERAQIV 110
Q87QR9 0 GWLMSSQGGKFIEEVQKDKYKPGKHIGSWYVEP 361
Q87PC0 0 RLKKNIGKIGKWARKEKLDCYRIYDADLPEYNV 417
Q87TE1 1 VFNFEGGCYAKTIKLSKEAEPDIYNAIRRDALL 294
Q87PJ7 0 ITQQFGAKPLFENISVKFGEGNRYGLIGANGCG 22
Q87PB5 1 VFSRRAKSIQLTPEIQKMLGTKKASVAPNDLIK 1064
Q87QL9 0 DEPQIAVTPGQSAVFYKDDVCLGGGIIEQRIKY 354
Q87QR9 0 TQQRYVVVVHGRPGAGKTLLGISSVAEIARSES 91
Q87SJ9 0 ATLLTPNMKEFEDVVGKVKSDQELVEKALALVK 204
Q87MM3 0 RKGRKSGKGFYTYKGKKKEVDKSIYKLLKLTPE 590
Q87N36 1 GDLQGPKIRVSTFKDGKITLKVGDKFTLDSDLP 84
Q87MH0 0 TKAVIDGNSWEWPIIFKWLQEKGNVETHEMYRT 280
Q87S19 0 RATLCVSSQVGCALECKFCSTAQQGFNRNLKVS 118
Q87MC3 1 TIVIGDRSMDEGNFEYKNRRTGEKTPVAMADIV 546
Q87MH1 1 ---------------MKVVEVKHPLVKHKIGLM 1
Q87T13 1 FEVGAELTVELFNETKKVDVTGTSKGKGFQGAV 105
Q87LP9 0 EALKHAGLKNRLNVTIKYVDSQDIETKGVELLE 325
Q87KR0 1 TPVWMMRQAGRYLPEYKATRAQAGDFMSLCKNA 36
Q87RV5 0 NQEKLAELFNYYTELLKAELGKVETGIVTFNEE 291
Q87RQ0 1 TAALSGEQKALRRDVHKTIAKVTDDIARRQTFN 704
Q87Q02 0 EGISAIMVAADAINQMKLLRIDEETTANIGMVN 213
Q87LP7 0 EKNLEAGREILEHELVKIGATLKDAEHYALKRF 513
Q87SL8 1 LDLIQEGNIGLMKAVDKFEYRRGYKFSTYATWW 424
Q87JS9 0 ANGSSYDHGTMFYHAPKEGLISAKNSVQIGIRT 171
Q87QJ9 0 TWMHSGMVMVDREKMSKSLGNFFTIRDVLGHYD 268
Q87N07 1 DKANQYVDEKAPWVVAKEEGKDQELQEICSVGI 469
Q87N29 0 AGVVVVAGGVQAIFGTKSDNLKTEMDEWIRNHG 459
Q87M06 1 FFPLTVNYQERTYAAGKIPGGFFKREGRPSEGE 72
P74956 0 TAMCTALVSALTGNPVKAEVAMTGEITLRGEVL 696
Q87TM1 1 EMDKIVEAANVETDPAKRAEMLKGVEATLYNDA 462
